
 *******************************************************************************

         NASA-GLENN CHEMICAL EQUILIBRIUM PROGRAM CEA2, MAY 21, 2004
                   BY  BONNIE MCBRIDE AND SANFORD GORDON
      REFS: NASA RP-1311, PART I, 1994 AND NASA RP-1311, PART II, 1996

 *******************************************************************************



  
 !     USER MANUAL FOR CEA CAN BE FOUND HERE:
 !          https://www.grc.nasa.gov/www/CEAWeb/RP-1311-P2.pdf
 !
 !  MULESIM DATA:
 !     (a)  Combustion or assigned-enthalpy-and-pressure problem (hp).
 !     (b)  Fuels are 'C32H66(a)' or paraffin at 298.15 K. The oxidant is
 !          'N2O(L),298.15K' at 298.15 K. Feel free to add any additional fuels.
 !     (c)  Oxidant-to-fuel weight ratios from 0.5 to 30 are defined.  Weight
 !          fractions are fractions of fuel relative to total fuel and fractions
 !          of oxidant relative to total oxidant. Make sure to update the wtfrac
 !          value if you add more fuels.
 !     (d)  Assigned pressures range from 1-70 bar in steps of 5 (p(bar)=1,...).
 !     (e)  Mixture properties are to be printed in SI units (siunits).
 !     (f)  Reactant fractions are to be expressed in terms of mass (massf)
 !     (g)  The short output file format is used (short)
 !     (h)  I don't know why but this program is unbelievably finicky, be warned
  
 reac
        oxid N2O(L),298.15K   wtfrac=1      t(k)=298.15
        fuel C32H66(a)        wtfrac=0.93   t(k)=298.15
        fuel AL               wtfrac=0.05   t(k)=298.15
        fuel C8H16,1-octene   wtfrac=0.02   t(k)=298.15
 prob   case=Boundless   hp   p(bar)=1,2.5,5,7.5,10,12.5,15,17.5,20,22.5,25,27.5,
 30,32.5,35,37.5,40,42.5,45,47.5,50,55,60,65,70
        o/f=0.5,0.75,1,1.25,1.5,2,2.25,2.5,2.75,3,3.5,4,4.5,5,5.5,6,6.5,7,7.5,8,8
 .5,9,9.5,10,10.5,11,12,13,14,15,17.5,20,25,37.5,50
 output siunits   massf   short
  
 end




         THERMODYNAMIC EQUILIBRIUM COMBUSTION PROPERTIES AT ASSIGNED

                                   PRESSURES

 CASE = Boundless      

             REACTANT                    WT FRACTION      ENERGY      TEMP
                                          (SEE NOTE)     KJ/KG-MOL      K  
 OXIDANT     N2O(L),298.15K               1.0000000     65100.000    298.150
 FUEL        C32H66(a)                    0.9300000   -967800.000    298.150
 FUEL        AL                           0.0500000    330000.000    298.150
 FUEL        C8H16,1-octene               0.0200000    -83590.000    298.150

 O/F=    0.50000  %FUEL= 66.666667  R,EQ.RATIO=18.233508  PHI,EQ.RATIO=18.233508

 THERMODYNAMIC PROPERTIES

 P, BAR            1.0000   2.5000   5.0000   7.5000   10.000   12.500   15.000   17.500
 T, K              986.91  1032.47  1070.67  1094.47  1111.98  1125.91  1137.51  1147.46
 RHO, KG/CU M    2.2157-1 5.4260-1 1.0691 0 1.5903 0 2.1085 0 2.6246 0 3.1391 0 3.6523 0
 H, KJ/KG         -440.06  -440.06  -440.06  -440.06  -440.06  -440.06  -440.06  -440.06
 U, KJ/KG         -891.38  -900.80  -907.75  -911.66  -914.33  -916.32  -917.91  -919.20
 G, KJ/KG        -11977.3 -12082.3 -12185.4 -12253.9 -12305.8 -12347.7 -12382.9 -12413.3
 S, KJ/(KG)(K)    11.6903  11.2762  10.9701  10.7941  10.6708  10.5760  10.4992  10.4346

 M, (1/n)          18.182   18.632   19.034   19.296   19.494   19.656   19.792   19.912
 MW, MOL WT        10.708   10.986   11.242   11.411   11.540   11.645   11.735   11.813
 (dLV/dLP)t      -1.06070 -1.07384 -1.08313 -1.08805 -1.09122 -1.09347 -1.09516 -1.09647
 (dLV/dLT)p        1.7678   1.8764   1.9421   1.9718   1.9883   1.9984   2.0049   2.0089
 Cp, KJ/(KG)(K)    7.4314   7.6467   7.6771   7.6403   7.5903   7.5383   7.4875   7.4391
 GAMMAs            1.1515   1.1516   1.1514   1.1510   1.1507   1.1503   1.1499   1.1495
 SON VEL,M/SEC      720.9    728.4    733.8    736.8    738.7    740.2    741.3    742.1

 MASS FRACTIONS

 CH4              0.04876  0.06764  0.08422  0.09475  0.10258  0.10884  0.11406  0.11855
 *CO              0.11021  0.10639  0.10396  0.10264  0.10172  0.10101  0.10042  0.09992
 *CO2             0.00923  0.00880  0.00847  0.00829  0.00818  0.00810  0.00805  0.00801
 C2H4             0.00000  0.00000  0.00000  0.00000  0.00001  0.00001  0.00001  0.00001
 C2H6             0.00000  0.00000  0.00001  0.00001  0.00002  0.00002  0.00003  0.00003
 HCN              0.00000  0.00000  0.00001  0.00001  0.00001  0.00002  0.00002  0.00002
 *H2              0.07836  0.07329  0.06889  0.06612  0.06406  0.06242  0.06105  0.05987
 H2O              0.02462  0.02742  0.02926  0.03025  0.03093  0.03145  0.03187  0.03223
 NH3              0.00013  0.00023  0.00034  0.00042  0.00049  0.00055  0.00060  0.00065
 *N2              0.21205  0.21197  0.21188  0.21181  0.21175  0.21170  0.21165  0.21161
 AL2O3(a)         0.06298  0.06298  0.06298  0.06298  0.06298  0.06298  0.06298  0.06298
 C(gr)            0.45366  0.44127  0.42999  0.42271  0.41726  0.41290  0.40925  0.40610

  * THERMODYNAMIC PROPERTIES FITTED TO 20000.K

 NOTE. WEIGHT FRACTION OF FUEL IN TOTAL FUELS AND OF OXIDANT IN TOTAL OXIDANTS









         THERMODYNAMIC EQUILIBRIUM COMBUSTION PROPERTIES AT ASSIGNED

                                   PRESSURES

 CASE = Boundless      

             REACTANT                    WT FRACTION      ENERGY      TEMP
                                          (SEE NOTE)     KJ/KG-MOL      K  
 OXIDANT     N2O(L),298.15K               1.0000000     65100.000    298.150
 FUEL        C32H66(a)                    0.9300000   -967800.000    298.150
 FUEL        AL                           0.0500000    330000.000    298.150
 FUEL        C8H16,1-octene               0.0200000    -83590.000    298.150

 O/F=    0.50000  %FUEL= 66.666667  R,EQ.RATIO=18.233508  PHI,EQ.RATIO=18.233508

 THERMODYNAMIC PROPERTIES

 P, BAR            20.000   22.500   25.000   27.500   30.000   32.500   35.000   37.500
 T, K             1156.18  1163.96  1170.97  1177.37  1183.24  1188.68  1193.74  1198.47
 RHO, KG/CU M    4.1646 0 4.6761 0 5.1868 0 5.6970 0 6.2066 0 6.7159 0 7.2247 0 7.7331 0
 H, KJ/KG         -440.06  -440.06  -440.06  -440.06  -440.06  -440.06  -440.06  -440.06
 U, KJ/KG         -920.30  -921.23  -922.05  -922.77  -923.41  -923.99  -924.51  -924.99
 G, KJ/KG        -12440.1 -12464.0 -12485.5 -12505.2 -12523.3 -12540.0 -12555.5 -12570.0
 S, KJ/(KG)(K)    10.3790  10.3302  10.2867  10.2476  10.2120  10.1793  10.1492  10.1212

 M, (1/n)          20.017   20.113   20.200   20.280   20.354   20.423   20.488   20.549
 MW, MOL WT        11.883   11.945   12.003   12.055   12.104   12.150   12.193   12.233
 (dLV/dLP)t      -1.09752 -1.09838 -1.09908 -1.09967 -1.10017 -1.10059 -1.10095 -1.10126
 (dLV/dLT)p        2.0115   2.0130   2.0136   2.0138   2.0134   2.0128   2.0119   2.0108
 Cp, KJ/(KG)(K)    7.3932   7.3497   7.3086   7.2696   7.2327   7.1975   7.1640   7.1321
 GAMMAs            1.1492   1.1488   1.1485   1.1481   1.1478   1.1475   1.1472   1.1469
 SON VEL,M/SEC      742.9    743.5    744.0    744.5    744.9    745.2    745.5    745.8

 MASS FRACTIONS

 CH4              0.12250  0.12602  0.12919  0.13209  0.13475  0.13721  0.13951  0.14165
 *CO              0.09948  0.09909  0.09873  0.09840  0.09809  0.09780  0.09753  0.09727
 *CO2             0.00798  0.00796  0.00794  0.00793  0.00792  0.00791  0.00791  0.00790
 C2H4             0.00001  0.00001  0.00001  0.00001  0.00002  0.00002  0.00002  0.00002
 C2H6             0.00003  0.00004  0.00004  0.00005  0.00005  0.00006  0.00006  0.00007
 HCN              0.00002  0.00002  0.00003  0.00003  0.00003  0.00003  0.00003  0.00003
 *H2              0.05883  0.05791  0.05708  0.05632  0.05562  0.05497  0.05437  0.05380
 H2O              0.03254  0.03281  0.03306  0.03328  0.03349  0.03368  0.03385  0.03402
 NH3              0.00070  0.00074  0.00078  0.00082  0.00086  0.00090  0.00093  0.00096
 *N2              0.21157  0.21154  0.21150  0.21147  0.21144  0.21141  0.21138  0.21135
 AL2O3(a)         0.06298  0.06298  0.06298  0.06298  0.06298  0.06298  0.06298  0.06298
 C(gr)            0.40334  0.40088  0.39865  0.39662  0.39476  0.39304  0.39143  0.38993

  * THERMODYNAMIC PROPERTIES FITTED TO 20000.K

 NOTE. WEIGHT FRACTION OF FUEL IN TOTAL FUELS AND OF OXIDANT IN TOTAL OXIDANTS









         THERMODYNAMIC EQUILIBRIUM COMBUSTION PROPERTIES AT ASSIGNED

                                   PRESSURES

 CASE = Boundless      

             REACTANT                    WT FRACTION      ENERGY      TEMP
                                          (SEE NOTE)     KJ/KG-MOL      K  
 OXIDANT     N2O(L),298.15K               1.0000000     65100.000    298.150
 FUEL        C32H66(a)                    0.9300000   -967800.000    298.150
 FUEL        AL                           0.0500000    330000.000    298.150
 FUEL        C8H16,1-octene               0.0200000    -83590.000    298.150

 O/F=    0.50000  %FUEL= 66.666667  R,EQ.RATIO=18.233508  PHI,EQ.RATIO=18.233508

 THERMODYNAMIC PROPERTIES

 P, BAR            40.000   42.500   45.000   47.500   50.000   55.000   60.000   65.000
 T, K             1202.91  1207.10  1211.07  1214.83  1218.41  1225.08  1231.20  1236.86
 RHO, KG/CU M    8.2413 0 8.7492 0 9.2568 0 9.7642 0 1.0271 1 1.1285 1 1.2298 1 1.3311 1
 H, KJ/KG         -440.06  -440.06  -440.06  -440.06  -440.06  -440.06  -440.06  -440.06
 U, KJ/KG         -925.42  -925.82  -926.19  -926.53  -926.85  -927.42  -927.93  -928.38
 G, KJ/KG        -12583.6 -12596.5 -12608.6 -12620.0 -12630.9 -12651.1 -12669.6 -12686.6
 S, KJ/(KG)(K)    10.0952  10.0707  10.0478  10.0261  10.0056   9.9676   9.9330   9.9014

 M, (1/n)          20.607   20.661   20.713   20.763   20.811   20.900   20.983   21.060
 MW, MOL WT        12.271   12.307   12.341   12.374   12.405   12.464   12.519   12.569
 (dLV/dLP)t      -1.10152 -1.10175 -1.10194 -1.10211 -1.10225 -1.10248 -1.10264 -1.10274
 (dLV/dLT)p        2.0095   2.0081   2.0066   2.0050   2.0034   2.0000   1.9964   1.9928
 Cp, KJ/(KG)(K)    7.1015   7.0722   7.0441   7.0172   6.9912   6.9420   6.8961   6.8531
 GAMMAs            1.1467   1.1464   1.1461   1.1459   1.1456   1.1451   1.1447   1.1442
 SON VEL,M/SEC      746.0    746.2    746.4    746.6    746.8    747.1    747.3    747.5

 MASS FRACTIONS

 CH4              0.14366  0.14556  0.14735  0.14905  0.15067  0.15369  0.15645  0.15900
 *CO              0.09703  0.09680  0.09658  0.09636  0.09616  0.09577  0.09541  0.09507
 *CO2             0.00790  0.00790  0.00790  0.00790  0.00791  0.00792  0.00793  0.00794
 CH3CN            0.00000  0.00000  0.00000  0.00000  0.00000  0.00000  0.00000  0.00001
 C2H4             0.00002  0.00002  0.00002  0.00002  0.00003  0.00003  0.00003  0.00003
 C2H6             0.00007  0.00008  0.00008  0.00008  0.00009  0.00010  0.00011  0.00012
 HCN              0.00004  0.00004  0.00004  0.00004  0.00004  0.00004  0.00005  0.00005
 *H2              0.05327  0.05277  0.05230  0.05185  0.05142  0.05063  0.04990  0.04922
 H2O              0.03418  0.03433  0.03447  0.03460  0.03473  0.03497  0.03520  0.03541
 NH3              0.00099  0.00102  0.00105  0.00108  0.00111  0.00116  0.00121  0.00125
 *N2              0.21133  0.21130  0.21128  0.21125  0.21123  0.21118  0.21114  0.21110
 AL2O3(a)         0.06298  0.06298  0.06298  0.06298  0.06298  0.06298  0.06298  0.06298
 C(gr)            0.38853  0.38720  0.38595  0.38476  0.38363  0.38152  0.37959  0.37782

  * THERMODYNAMIC PROPERTIES FITTED TO 20000.K

 NOTE. WEIGHT FRACTION OF FUEL IN TOTAL FUELS AND OF OXIDANT IN TOTAL OXIDANTS









         THERMODYNAMIC EQUILIBRIUM COMBUSTION PROPERTIES AT ASSIGNED

                                   PRESSURES

 CASE = Boundless      

             REACTANT                    WT FRACTION      ENERGY      TEMP
                                          (SEE NOTE)     KJ/KG-MOL      K  
 OXIDANT     N2O(L),298.15K               1.0000000     65100.000    298.150
 FUEL        C32H66(a)                    0.9300000   -967800.000    298.150
 FUEL        AL                           0.0500000    330000.000    298.150
 FUEL        C8H16,1-octene               0.0200000    -83590.000    298.150

 O/F=    0.50000  %FUEL= 66.666667  R,EQ.RATIO=18.233508  PHI,EQ.RATIO=18.233508

 THERMODYNAMIC PROPERTIES

 P, BAR            70.000
 T, K             1242.11
 RHO, KG/CU M    1.4323 1
 H, KJ/KG         -440.06
 U, KJ/KG         -928.78
 G, KJ/KG        -12702.3
 S, KJ/(KG)(K)     9.8722

 M, (1/n)          21.132
 MW, MOL WT        12.617
 (dLV/dLP)t      -1.10281
 (dLV/dLT)p        1.9892
 Cp, KJ/(KG)(K)    6.8127
 GAMMAs            1.1438
 SON VEL,M/SEC      747.7

 MASS FRACTIONS

 CH4              0.16137
 *CO              0.09475
 *CO2             0.00795
 CH3CN            0.00001
 C2H4             0.00003
 C2H6             0.00012
 HCN              0.00005
 *H2              0.04859
 H2O              0.03560
 NH3              0.00130
 *N2              0.21106
 AL2O3(a)         0.06298
 C(gr)            0.37617

  * THERMODYNAMIC PROPERTIES FITTED TO 20000.K

 NOTE. WEIGHT FRACTION OF FUEL IN TOTAL FUELS AND OF OXIDANT IN TOTAL OXIDANTS









         THERMODYNAMIC EQUILIBRIUM COMBUSTION PROPERTIES AT ASSIGNED

                                   PRESSURES

 CASE = Boundless      

             REACTANT                    WT FRACTION      ENERGY      TEMP
                                          (SEE NOTE)     KJ/KG-MOL      K  
 OXIDANT     N2O(L),298.15K               1.0000000     65100.000    298.150
 FUEL        C32H66(a)                    0.9300000   -967800.000    298.150
 FUEL        AL                           0.0500000    330000.000    298.150
 FUEL        C8H16,1-octene               0.0200000    -83590.000    298.150

 O/F=    0.75000  %FUEL= 57.142857  R,EQ.RATIO=12.155672  PHI,EQ.RATIO=12.155672

 THERMODYNAMIC PROPERTIES

 P, BAR            1.0000   2.5000   5.0000   7.5000   10.000   12.500   15.000   17.500
 T, K             1081.50  1119.63  1154.03  1176.29  1193.01  1206.49  1217.83  1227.64
 RHO, KG/CU M    1.9907-1 4.8900-1 9.6428-1 1.4344 0 1.9015 0 2.3662 0 2.8293 0 3.2910 0
 H, KJ/KG         -165.89  -165.89  -165.89  -165.89  -165.89  -165.89  -165.89  -165.89
 U, KJ/KG         -668.23  -677.14  -684.41  -688.74  -691.80  -694.16  -696.06  -697.64
 G, KJ/KG        -13153.1 -13138.4 -13174.6 -13212.3 -13245.8 -13275.3 -13301.6 -13325.2
 S, KJ/(KG)(K)    12.0086  11.5864  11.2724  11.0911  10.9638  10.8658  10.7862  10.7192

 M, (1/n)          17.901   18.209   18.505   18.706   18.861   18.989   19.099   19.195
 MW, MOL WT        11.573   11.761   11.954   12.090   12.197   12.286   12.363   12.431
 (dLV/dLP)t      -1.02748 -1.04048 -1.05132 -1.05778 -1.06232 -1.06577 -1.06853 -1.07080
 (dLV/dLT)p        1.3345   1.4660   1.5651   1.6198   1.6561   1.6825   1.7028   1.7189
 Cp, KJ/(KG)(K)    4.5493   5.1527   5.5303   5.7060   5.8076   5.8723   5.9160   5.9463
 GAMMAs            1.1825   1.1764   1.1733   1.1718   1.1708   1.1700   1.1694   1.1688
 SON VEL,M/SEC      770.7    775.5    780.0    782.7    784.7    786.2    787.4    788.4

 MASS FRACTIONS

 CH4              0.01683  0.02787  0.03884  0.04632  0.05210  0.05685  0.06090  0.06444
 *CO              0.20591  0.19807  0.19226  0.18898  0.18670  0.18496  0.18355  0.18236
 *CO2             0.00516  0.00639  0.00712  0.00747  0.00770  0.00786  0.00799  0.00810
 C2H4             0.00000  0.00000  0.00000  0.00000  0.00001  0.00001  0.00001  0.00001
 C2H6             0.00000  0.00000  0.00000  0.00001  0.00001  0.00001  0.00001  0.00001
 HCN              0.00001  0.00002  0.00003  0.00003  0.00004  0.00005  0.00005  0.00006
 *H2              0.07468  0.07143  0.06831  0.06621  0.06460  0.06329  0.06217  0.06120
 H2O              0.01014  0.01419  0.01732  0.01915  0.02043  0.02141  0.02221  0.02288
 NH3              0.00008  0.00015  0.00023  0.00030  0.00036  0.00041  0.00046  0.00050
 *N2              0.27271  0.27265  0.27257  0.27251  0.27246  0.27241  0.27237  0.27233
 AL2O3(a)         0.05398  0.05398  0.05398  0.05398  0.05398  0.05398  0.05398  0.05398
 C(gr)            0.36050  0.35525  0.34933  0.34503  0.34161  0.33875  0.33628  0.33410

  * THERMODYNAMIC PROPERTIES FITTED TO 20000.K

 NOTE. WEIGHT FRACTION OF FUEL IN TOTAL FUELS AND OF OXIDANT IN TOTAL OXIDANTS









         THERMODYNAMIC EQUILIBRIUM COMBUSTION PROPERTIES AT ASSIGNED

                                   PRESSURES

 CASE = Boundless      

             REACTANT                    WT FRACTION      ENERGY      TEMP
                                          (SEE NOTE)     KJ/KG-MOL      K  
 OXIDANT     N2O(L),298.15K               1.0000000     65100.000    298.150
 FUEL        C32H66(a)                    0.9300000   -967800.000    298.150
 FUEL        AL                           0.0500000    330000.000    298.150
 FUEL        C8H16,1-octene               0.0200000    -83590.000    298.150

 O/F=    0.75000  %FUEL= 57.142857  R,EQ.RATIO=12.155672  PHI,EQ.RATIO=12.155672

 THERMODYNAMIC PROPERTIES

 P, BAR            20.000   22.500   25.000   27.500   30.000   32.500   35.000   37.500
 T, K             1236.30  1244.06  1251.09  1257.54  1263.48  1268.99  1274.15  1278.98
 RHO, KG/CU M    3.7516 0 4.2112 0 4.6700 0 5.1281 0 5.5856 0 6.0425 0 6.4990 0 6.9549 0
 H, KJ/KG         -165.89  -165.89  -165.89  -165.89  -165.89  -165.89  -165.89  -165.89
 U, KJ/KG         -699.00  -700.18  -701.22  -702.15  -702.98  -703.74  -704.44  -705.08
 G, KJ/KG        -13346.7 -13366.4 -13384.5 -13401.4 -13417.1 -13431.9 -13445.7 -13458.8
 S, KJ/(KG)(K)    10.6615  10.6108  10.5657  10.5249  10.4879  10.4539  10.4225  10.3934

 M, (1/n)          19.282   19.360   19.432   19.498   19.559   19.617   19.671   19.722
 MW, MOL WT        12.493   12.549   12.600   12.648   12.692   12.734   12.773   12.810
 (dLV/dLP)t      -1.07272 -1.07437 -1.07581 -1.07707 -1.07820 -1.07921 -1.08013 -1.08096
 (dLV/dLT)p        1.7321   1.7431   1.7524   1.7603   1.7672   1.7732   1.7785   1.7832
 Cp, KJ/(KG)(K)    5.9677   5.9828   5.9933   6.0004   6.0049   6.0074   6.0084   6.0080
 GAMMAs            1.1683   1.1679   1.1675   1.1671   1.1667   1.1664   1.1660   1.1657
 SON VEL,M/SEC      789.2    789.9    790.6    791.1    791.6    792.0    792.4    792.8

 MASS FRACTIONS

 CH4              0.06758  0.07042  0.07300  0.07538  0.07757  0.07962  0.08154  0.08334
 *CO              0.18134  0.18044  0.17964  0.17891  0.17825  0.17764  0.17707  0.17654
 *CO2             0.00820  0.00828  0.00835  0.00842  0.00848  0.00853  0.00859  0.00864
 C2H4             0.00001  0.00002  0.00002  0.00002  0.00002  0.00002  0.00002  0.00003
 C2H6             0.00002  0.00002  0.00002  0.00002  0.00003  0.00003  0.00003  0.00004
 HCN              0.00006  0.00007  0.00007  0.00007  0.00008  0.00008  0.00009  0.00009
 *H2              0.06034  0.05956  0.05885  0.05820  0.05760  0.05704  0.05652  0.05602
 H2O              0.02346  0.02397  0.02443  0.02484  0.02522  0.02557  0.02589  0.02619
 NH3              0.00055  0.00058  0.00062  0.00066  0.00069  0.00072  0.00075  0.00078
 *N2              0.27230  0.27226  0.27223  0.27220  0.27217  0.27214  0.27211  0.27209
 AL2O3(a)         0.05398  0.05398  0.05398  0.05398  0.05398  0.05398  0.05398  0.05398
 C(gr)            0.33216  0.33039  0.32878  0.32728  0.32590  0.32461  0.32340  0.32225

  * THERMODYNAMIC PROPERTIES FITTED TO 20000.K

 NOTE. WEIGHT FRACTION OF FUEL IN TOTAL FUELS AND OF OXIDANT IN TOTAL OXIDANTS









         THERMODYNAMIC EQUILIBRIUM COMBUSTION PROPERTIES AT ASSIGNED

                                   PRESSURES

 CASE = Boundless      

             REACTANT                    WT FRACTION      ENERGY      TEMP
                                          (SEE NOTE)     KJ/KG-MOL      K  
 OXIDANT     N2O(L),298.15K               1.0000000     65100.000    298.150
 FUEL        C32H66(a)                    0.9300000   -967800.000    298.150
 FUEL        AL                           0.0500000    330000.000    298.150
 FUEL        C8H16,1-octene               0.0200000    -83590.000    298.150

 O/F=    0.75000  %FUEL= 57.142857  R,EQ.RATIO=12.155672  PHI,EQ.RATIO=12.155672

 THERMODYNAMIC PROPERTIES

 P, BAR            40.000   42.500   45.000   47.500   50.000   55.000   60.000   65.000
 T, K             1283.53  1287.83  1291.91  1295.79  1299.49  1306.41  1312.78  1318.68
 RHO, KG/CU M    7.4105 0 7.8657 0 8.3205 0 8.7751 0 9.2293 0 1.0137 1 1.1044 1 1.1950 1
 H, KJ/KG         -165.89  -165.89  -165.89  -165.89  -165.89  -165.89  -165.89  -165.89
 U, KJ/KG         -705.67  -706.21  -706.72  -707.20  -707.64  -708.46  -709.18  -709.84
 G, KJ/KG        -13471.3 -13483.1 -13494.3 -13505.0 -13515.3 -13534.6 -13552.4 -13569.0
 S, KJ/(KG)(K)    10.3663  10.3408  10.3168  10.2942  10.2728  10.2332  10.1971  10.1640

 M, (1/n)          19.771   19.817   19.861   19.903   19.944   20.020   20.091   20.157
 MW, MOL WT        12.845   12.879   12.911   12.942   12.971   13.027   13.079   13.127
 (dLV/dLP)t      -1.08171 -1.08241 -1.08304 -1.08363 -1.08418 -1.08516 -1.08601 -1.08676
 (dLV/dLT)p        1.7873   1.7910   1.7943   1.7973   1.8000   1.8045   1.8083   1.8114
 Cp, KJ/(KG)(K)    6.0067   6.0045   6.0017   5.9983   5.9945   5.9859   5.9762   5.9659
 GAMMAs            1.1654   1.1651   1.1649   1.1646   1.1643   1.1638   1.1634   1.1629
 SON VEL,M/SEC      793.1    793.4    793.7    794.0    794.2    794.6    795.0    795.3

 MASS FRACTIONS

 CH4              0.08504  0.08665  0.08818  0.08964  0.09103  0.09364  0.09604  0.09827
 *CO              0.17605  0.17558  0.17514  0.17472  0.17432  0.17358  0.17289  0.17226
 *CO2             0.00868  0.00873  0.00877  0.00881  0.00885  0.00893  0.00900  0.00906
 CH3CN            0.00001  0.00001  0.00001  0.00001  0.00001  0.00001  0.00001  0.00001
 C2H4             0.00003  0.00003  0.00003  0.00003  0.00003  0.00004  0.00004  0.00004
 C2H6             0.00004  0.00004  0.00004  0.00005  0.00005  0.00005  0.00006  0.00007
 HCN              0.00009  0.00010  0.00010  0.00010  0.00011  0.00011  0.00012  0.00013
 *H2              0.05556  0.05512  0.05470  0.05430  0.05392  0.05321  0.05256  0.05195
 H2O              0.02647  0.02673  0.02698  0.02721  0.02744  0.02786  0.02824  0.02859
 NH3              0.00081  0.00084  0.00086  0.00089  0.00091  0.00096  0.00101  0.00105
 *N2              0.27206  0.27204  0.27201  0.27199  0.27197  0.27192  0.27188  0.27184
 AL2O3(a)         0.05398  0.05398  0.05398  0.05398  0.05398  0.05398  0.05398  0.05398
 C(gr)            0.32117  0.32015  0.31918  0.31825  0.31736  0.31570  0.31417  0.31274

  * THERMODYNAMIC PROPERTIES FITTED TO 20000.K

 NOTE. WEIGHT FRACTION OF FUEL IN TOTAL FUELS AND OF OXIDANT IN TOTAL OXIDANTS









         THERMODYNAMIC EQUILIBRIUM COMBUSTION PROPERTIES AT ASSIGNED

                                   PRESSURES

 CASE = Boundless      

             REACTANT                    WT FRACTION      ENERGY      TEMP
                                          (SEE NOTE)     KJ/KG-MOL      K  
 OXIDANT     N2O(L),298.15K               1.0000000     65100.000    298.150
 FUEL        C32H66(a)                    0.9300000   -967800.000    298.150
 FUEL        AL                           0.0500000    330000.000    298.150
 FUEL        C8H16,1-octene               0.0200000    -83590.000    298.150

 O/F=    0.75000  %FUEL= 57.142857  R,EQ.RATIO=12.155672  PHI,EQ.RATIO=12.155672

 THERMODYNAMIC PROPERTIES

 P, BAR            70.000
 T, K             1324.18
 RHO, KG/CU M    1.2855 1
 H, KJ/KG         -165.89
 U, KJ/KG         -710.43
 G, KJ/KG        -13584.5
 S, KJ/(KG)(K)    10.1335

 M, (1/n)          20.219
 MW, MOL WT        13.172
 (dLV/dLP)t      -1.08743
 (dLV/dLT)p        1.8139
 Cp, KJ/(KG)(K)    5.9551
 GAMMAs            1.1625
 SON VEL,M/SEC      795.6

 MASS FRACTIONS

 CH4              0.10034
 *CO              0.17167
 *CO2             0.00913
 CH3CN            0.00001
 C2H4             0.00005
 C2H6             0.00007
 HCN              0.00013
 *H2              0.05138
 H2O              0.02892
 NH3              0.00109
 *N2              0.27181
 AL2O3(a)         0.05398
 C(gr)            0.31141

  * THERMODYNAMIC PROPERTIES FITTED TO 20000.K

 NOTE. WEIGHT FRACTION OF FUEL IN TOTAL FUELS AND OF OXIDANT IN TOTAL OXIDANTS









         THERMODYNAMIC EQUILIBRIUM COMBUSTION PROPERTIES AT ASSIGNED

                                   PRESSURES

 CASE = Boundless      

             REACTANT                    WT FRACTION      ENERGY      TEMP
                                          (SEE NOTE)     KJ/KG-MOL      K  
 OXIDANT     N2O(L),298.15K               1.0000000     65100.000    298.150
 FUEL        C32H66(a)                    0.9300000   -967800.000    298.150
 FUEL        AL                           0.0500000    330000.000    298.150
 FUEL        C8H16,1-octene               0.0200000    -83590.000    298.150

 O/F=    1.00000  %FUEL= 50.000000  R,EQ.RATIO= 9.116754  PHI,EQ.RATIO= 9.116754

 THERMODYNAMIC PROPERTIES

 P, BAR            1.0000   2.5000   5.0000   7.5000   10.000   12.500   15.000   17.500
 T, K             1202.38  1224.43  1248.80  1266.24  1280.01  1291.47  1301.32  1309.99
 RHO, KG/CU M    1.8000-1 4.4592-1 8.8348-1 1.3169 0 1.7476 0 2.1762 0 2.6032 0 3.0290 0
 H, KJ/KG          39.735   39.735   39.735   39.735   39.735   39.735   39.735   39.735
 U, KJ/KG         -515.81  -520.91  -526.21  -529.79  -532.49  -534.66  -536.47  -538.01
 G, KJ/KG        -14625.2 -14377.8 -14270.4 -14238.5 -14228.6 -14227.8 -14231.4 -14237.2
 S, KJ/(KG)(K)    12.1966  11.7749  11.4591  11.2760  11.1470  11.0475  10.9666  10.8985

 M, (1/n)          17.995   18.159   18.347   18.486   18.599   18.694   18.778   18.852
 MW, MOL WT        12.557   12.665   12.796   12.895   12.978   13.049   13.112   13.168
 (dLV/dLP)t      -1.00882 -1.01701 -1.02568 -1.03161 -1.03610 -1.03971 -1.04272 -1.04528
 (dLV/dLT)p        1.0956   1.1794   1.2633   1.3179   1.3579   1.3891   1.4144   1.4356
 Cp, KJ/(KG)(K)    2.9097   3.3274   3.7138   3.9473   4.1089   4.2294   4.3233   4.3991
 GAMMAs            1.2222   1.2112   1.2035   1.1995   1.1969   1.1950   1.1936   1.1924
 SON VEL,M/SEC      824.0    824.1    825.3    826.5    827.6    828.5    829.3    830.0

 MASS FRACTIONS

 CH4              0.00520  0.01061  0.01702  0.02184  0.02577  0.02911  0.03203  0.03463
 *CO              0.27330  0.26814  0.26299  0.25960  0.25707  0.25505  0.25337  0.25194
 *CO2             0.00138  0.00247  0.00348  0.00410  0.00455  0.00489  0.00517  0.00540
 C2H4             0.00000  0.00000  0.00000  0.00001  0.00001  0.00001  0.00001  0.00001
 C2H6             0.00000  0.00000  0.00000  0.00000  0.00000  0.00000  0.00001  0.00001
 HCN              0.00005  0.00006  0.00008  0.00009  0.00010  0.00011  0.00013  0.00013
 *H2              0.06843  0.06679  0.06488  0.06348  0.06234  0.06138  0.06054  0.05980
 H2O              0.00272  0.00514  0.00763  0.00930  0.01056  0.01158  0.01243  0.01316
 NH3              0.00004  0.00009  0.00015  0.00020  0.00025  0.00029  0.00033  0.00037
 *N2              0.31818  0.31814  0.31808  0.31803  0.31798  0.31794  0.31790  0.31787
 AL2O3(a)         0.04724  0.04724  0.04724  0.04724  0.04724  0.04724  0.04724  0.04724
 C(gr)            0.28348  0.28133  0.27845  0.27612  0.27413  0.27239  0.27084  0.26944

  * THERMODYNAMIC PROPERTIES FITTED TO 20000.K

 NOTE. WEIGHT FRACTION OF FUEL IN TOTAL FUELS AND OF OXIDANT IN TOTAL OXIDANTS









         THERMODYNAMIC EQUILIBRIUM COMBUSTION PROPERTIES AT ASSIGNED

                                   PRESSURES

 CASE = Boundless      

             REACTANT                    WT FRACTION      ENERGY      TEMP
                                          (SEE NOTE)     KJ/KG-MOL      K  
 OXIDANT     N2O(L),298.15K               1.0000000     65100.000    298.150
 FUEL        C32H66(a)                    0.9300000   -967800.000    298.150
 FUEL        AL                           0.0500000    330000.000    298.150
 FUEL        C8H16,1-octene               0.0200000    -83590.000    298.150

 O/F=    1.00000  %FUEL= 50.000000  R,EQ.RATIO= 9.116754  PHI,EQ.RATIO= 9.116754

 THERMODYNAMIC PROPERTIES

 P, BAR            20.000   22.500   25.000   27.500   30.000   32.500   35.000   37.500
 T, K             1317.74  1324.77  1331.19  1337.12  1342.62  1347.77  1352.59  1357.14
 RHO, KG/CU M    3.4537 0 3.8774 0 4.3003 0 4.7225 0 5.1440 0 5.5650 0 5.9855 0 6.4054 0
 H, KJ/KG          39.735   39.735   39.735   39.735   39.735   39.735   39.735   39.735
 U, KJ/KG         -539.36  -540.55  -541.62  -542.59  -543.47  -544.27  -545.02  -545.71
 G, KJ/KG        -14244.2 -14251.9 -14259.9 -14267.9 -14276.0 -14284.1 -14292.0 -14299.7
 S, KJ/(KG)(K)    10.8397  10.7880  10.7419  10.7004  10.6625  10.6278  10.5957  10.5659

 M, (1/n)          18.920   18.982   19.039   19.092   19.141   19.188   19.232   19.274
 MW, MOL WT        13.220   13.267   13.311   13.353   13.391   13.428   13.463   13.496
 (dLV/dLP)t      -1.04751 -1.04948 -1.05124 -1.05282 -1.05426 -1.05557 -1.05678 -1.05789
 (dLV/dLT)p        1.4537   1.4694   1.4832   1.4955   1.5065   1.5164   1.5254   1.5336
 Cp, KJ/(KG)(K)    4.4616   4.5141   4.5590   4.5976   4.6313   4.6610   4.6872   4.7105
 GAMMAs            1.1914   1.1905   1.1898   1.1891   1.1885   1.1879   1.1874   1.1869
 SON VEL,M/SEC      830.6    831.2    831.7    832.1    832.5    832.9    833.3    833.6

 MASS FRACTIONS

 CH4              0.03699  0.03914  0.04112  0.04296  0.04468  0.04629  0.04782  0.04926
 *CO              0.25068  0.24957  0.24856  0.24765  0.24681  0.24604  0.24532  0.24464
 *CO2             0.00560  0.00578  0.00594  0.00608  0.00621  0.00633  0.00645  0.00655
 CH3CN            0.00000  0.00000  0.00000  0.00000  0.00001  0.00001  0.00001  0.00001
 C2H4             0.00002  0.00002  0.00002  0.00002  0.00002  0.00003  0.00003  0.00003
 C2H6             0.00001  0.00001  0.00001  0.00001  0.00001  0.00002  0.00002  0.00002
 HCN              0.00014  0.00015  0.00016  0.00017  0.00018  0.00018  0.00019  0.00020
 *H2              0.05913  0.05852  0.05795  0.05743  0.05694  0.05649  0.05606  0.05565
 H2O              0.01380  0.01437  0.01489  0.01536  0.01579  0.01619  0.01656  0.01691
 NH3              0.00040  0.00043  0.00046  0.00049  0.00052  0.00055  0.00058  0.00060
 *N2              0.31784  0.31780  0.31777  0.31774  0.31772  0.31769  0.31767  0.31764
 AL2O3(a)         0.04724  0.04724  0.04724  0.04724  0.04724  0.04724  0.04724  0.04724
 C(gr)            0.26815  0.26697  0.26586  0.26483  0.26386  0.26294  0.26207  0.26125

  * THERMODYNAMIC PROPERTIES FITTED TO 20000.K

 NOTE. WEIGHT FRACTION OF FUEL IN TOTAL FUELS AND OF OXIDANT IN TOTAL OXIDANTS









         THERMODYNAMIC EQUILIBRIUM COMBUSTION PROPERTIES AT ASSIGNED

                                   PRESSURES

 CASE = Boundless      

             REACTANT                    WT FRACTION      ENERGY      TEMP
                                          (SEE NOTE)     KJ/KG-MOL      K  
 OXIDANT     N2O(L),298.15K               1.0000000     65100.000    298.150
 FUEL        C32H66(a)                    0.9300000   -967800.000    298.150
 FUEL        AL                           0.0500000    330000.000    298.150
 FUEL        C8H16,1-octene               0.0200000    -83590.000    298.150

 O/F=    1.00000  %FUEL= 50.000000  R,EQ.RATIO= 9.116754  PHI,EQ.RATIO= 9.116754

 THERMODYNAMIC PROPERTIES

 P, BAR            40.000   42.500   45.000   47.500   50.000   55.000   60.000   65.000
 T, K             1361.44  1365.53  1369.41  1373.12  1376.67  1383.33  1389.49  1395.23
 RHO, KG/CU M    6.8250 0 7.2441 0 7.6629 0 8.0813 0 8.4994 0 9.3347 0 1.0169 1 1.1002 1
 H, KJ/KG          39.735   39.735   39.735   39.735   39.735   39.735   39.735   39.735
 U, KJ/KG         -546.35  -546.95  -547.51  -548.04  -548.54  -549.46  -550.29  -551.05
 G, KJ/KG        -14307.3 -14314.8 -14322.0 -14329.1 -14336.0 -14349.3 -14362.0 -14374.1
 S, KJ/(KG)(K)    10.5381  10.5121  10.4875  10.4644  10.4424  10.4018  10.3647  10.3308

 M, (1/n)          19.314   19.352   19.389   19.424   19.457   19.521   19.580   19.636
 MW, MOL WT        13.527   13.557   13.586   13.614   13.641   13.692   13.739   13.784
 (dLV/dLP)t      -1.05893 -1.05989 -1.06079 -1.06164 -1.06243 -1.06388 -1.06518 -1.06635
 (dLV/dLT)p        1.5411   1.5480   1.5544   1.5604   1.5659   1.5759   1.5847   1.5925
 Cp, KJ/(KG)(K)    4.7314   4.7501   4.7671   4.7824   4.7964   4.8206   4.8410   4.8582
 GAMMAs            1.1865   1.1860   1.1856   1.1852   1.1849   1.1842   1.1836   1.1830
 SON VEL,M/SEC      833.9    834.2    834.4    834.7    834.9    835.3    835.7    836.0

 MASS FRACTIONS

 CH4              0.05062  0.05192  0.05317  0.05436  0.05550  0.05764  0.05964  0.06150
 *CO              0.24401  0.24341  0.24285  0.24232  0.24181  0.24086  0.23998  0.23918
 *CO2             0.00665  0.00674  0.00682  0.00691  0.00698  0.00713  0.00726  0.00739
 CH3CN            0.00001  0.00001  0.00001  0.00001  0.00001  0.00001  0.00001  0.00001
 C2H4             0.00003  0.00003  0.00004  0.00004  0.00004  0.00004  0.00005  0.00005
 C2H6             0.00002  0.00002  0.00002  0.00003  0.00003  0.00003  0.00003  0.00004
 HCN              0.00020  0.00021  0.00022  0.00022  0.00023  0.00024  0.00025  0.00026
 HNCO             0.00000  0.00000  0.00000  0.00000  0.00000  0.00000  0.00000  0.00001
 *H2              0.05527  0.05490  0.05455  0.05422  0.05389  0.05329  0.05273  0.05221
 H2O              0.01724  0.01754  0.01784  0.01811  0.01838  0.01887  0.01932  0.01974
 NH3              0.00063  0.00065  0.00067  0.00070  0.00072  0.00076  0.00080  0.00084
 *N2              0.31762  0.31759  0.31757  0.31755  0.31753  0.31748  0.31744  0.31741
 AL2O3(a)         0.04724  0.04724  0.04724  0.04724  0.04724  0.04724  0.04724  0.04724
 C(gr)            0.26046  0.25971  0.25900  0.25831  0.25764  0.25639  0.25522  0.25413

  * THERMODYNAMIC PROPERTIES FITTED TO 20000.K

 NOTE. WEIGHT FRACTION OF FUEL IN TOTAL FUELS AND OF OXIDANT IN TOTAL OXIDANTS









         THERMODYNAMIC EQUILIBRIUM COMBUSTION PROPERTIES AT ASSIGNED

                                   PRESSURES

 CASE = Boundless      

             REACTANT                    WT FRACTION      ENERGY      TEMP
                                          (SEE NOTE)     KJ/KG-MOL      K  
 OXIDANT     N2O(L),298.15K               1.0000000     65100.000    298.150
 FUEL        C32H66(a)                    0.9300000   -967800.000    298.150
 FUEL        AL                           0.0500000    330000.000    298.150
 FUEL        C8H16,1-octene               0.0200000    -83590.000    298.150

 O/F=    1.00000  %FUEL= 50.000000  R,EQ.RATIO= 9.116754  PHI,EQ.RATIO= 9.116754

 THERMODYNAMIC PROPERTIES

 P, BAR            70.000
 T, K             1400.59
 RHO, KG/CU M    1.1835 1
 H, KJ/KG          39.735
 U, KJ/KG         -551.74
 G, KJ/KG        -14385.6
 S, KJ/(KG)(K)    10.2995

 M, (1/n)          19.689
 MW, MOL WT        13.826
 (dLV/dLP)t      -1.06742
 (dLV/dLT)p        1.5994
 Cp, KJ/(KG)(K)    4.8727
 GAMMAs            1.1824
 SON VEL,M/SEC      836.3

 MASS FRACTIONS

 CH4              0.06325
 *CO              0.23842
 *CO2             0.00750
 CH3CN            0.00001
 C2H4             0.00005
 C2H6             0.00004
 HCN              0.00027
 HNCO             0.00001
 *H2              0.05171
 H2O              0.02012
 NH3              0.00088
 *N2              0.31737
 AL2O3(a)         0.04724
 C(gr)            0.25310

  * THERMODYNAMIC PROPERTIES FITTED TO 20000.K

 NOTE. WEIGHT FRACTION OF FUEL IN TOTAL FUELS AND OF OXIDANT IN TOTAL OXIDANTS









         THERMODYNAMIC EQUILIBRIUM COMBUSTION PROPERTIES AT ASSIGNED

                                   PRESSURES

 CASE = Boundless      

             REACTANT                    WT FRACTION      ENERGY      TEMP
                                          (SEE NOTE)     KJ/KG-MOL      K  
 OXIDANT     N2O(L),298.15K               1.0000000     65100.000    298.150
 FUEL        C32H66(a)                    0.9300000   -967800.000    298.150
 FUEL        AL                           0.0500000    330000.000    298.150
 FUEL        C8H16,1-octene               0.0200000    -83590.000    298.150

 O/F=    1.25000  %FUEL= 44.444444  R,EQ.RATIO= 7.293403  PHI,EQ.RATIO= 7.293403

 THERMODYNAMIC PROPERTIES

 P, BAR            1.0000   2.5000   5.0000   7.5000   10.000   12.500   15.000   17.500
 T, K             1338.18  1347.49  1360.35  1371.00  1380.14  1388.20  1395.41  1401.95
 RHO, KG/CU M    1.6419-1 4.0916-1 8.1483-1 1.2181 0 1.6195 0 2.0194 0 2.4182 0 2.8158 0
 H, KJ/KG          199.67   199.67   199.67   199.67   199.67   199.67   199.67   199.67
 U, KJ/KG         -409.39  -411.34  -413.96  -416.06  -417.81  -419.32  -420.64  -421.82
 G, KJ/KG        -16266.0 -15819.5 -15545.8 -15418.8 -15345.1 -15297.4 -15264.6 -15241.2
 S, KJ/(KG)(K)    12.3045  11.8881  11.5746  11.3921  11.2631  11.1634  11.0823  11.0138

 M, (1/n)          18.268   18.337   18.432   18.513   18.584   18.647   18.704   18.756
 MW, MOL WT        13.574   13.627   13.702   13.767   13.824   13.875   13.922   13.966
 (dLV/dLP)t      -1.00282 -1.00642 -1.01127 -1.01518 -1.01846 -1.02128 -1.02376 -1.02596
 (dLV/dLT)p        1.0268   1.0604   1.1047   1.1396   1.1684   1.1927   1.2137   1.2322
 Cp, KJ/(KG)(K)    2.4218   2.5748   2.7708   2.9205   3.0404   3.1397   3.2238   3.2963
 GAMMAs            1.2427   1.2370   1.2306   1.2263   1.2231   1.2206   1.2186   1.2169
 SON VEL,M/SEC      870.0    869.4    869.0    868.9    869.0    869.2    869.4    869.6

 MASS FRACTIONS

 CH4              0.00172  0.00398  0.00719  0.00991  0.01229  0.01441  0.01634  0.01810
 *CO              0.31738  0.31541  0.31278  0.31068  0.30892  0.30742  0.30609  0.30491
 *CO2             0.00034  0.00077  0.00132  0.00175  0.00210  0.00240  0.00265  0.00288
 C2H4             0.00000  0.00000  0.00000  0.00001  0.00001  0.00001  0.00001  0.00002
 HCN              0.00019  0.00020  0.00022  0.00024  0.00026  0.00027  0.00029  0.00030
 *H2              0.06174  0.06106  0.06011  0.05930  0.05861  0.05798  0.05742  0.05691
 H2O              0.00073  0.00165  0.00289  0.00389  0.00473  0.00546  0.00610  0.00667
 NH3              0.00002  0.00005  0.00009  0.00013  0.00016  0.00019  0.00023  0.00025
 *N2              0.35349  0.35346  0.35341  0.35337  0.35333  0.35330  0.35326  0.35323
 AL2O3(a)         0.04199  0.04199  0.04199  0.04199  0.04199  0.04199  0.04199  0.04199
 C(gr)            0.22240  0.22143  0.21999  0.21873  0.21759  0.21656  0.21560  0.21471

  * THERMODYNAMIC PROPERTIES FITTED TO 20000.K

 NOTE. WEIGHT FRACTION OF FUEL IN TOTAL FUELS AND OF OXIDANT IN TOTAL OXIDANTS









         THERMODYNAMIC EQUILIBRIUM COMBUSTION PROPERTIES AT ASSIGNED

                                   PRESSURES

 CASE = Boundless      

             REACTANT                    WT FRACTION      ENERGY      TEMP
                                          (SEE NOTE)     KJ/KG-MOL      K  
 OXIDANT     N2O(L),298.15K               1.0000000     65100.000    298.150
 FUEL        C32H66(a)                    0.9300000   -967800.000    298.150
 FUEL        AL                           0.0500000    330000.000    298.150
 FUEL        C8H16,1-octene               0.0200000    -83590.000    298.150

 O/F=    1.25000  %FUEL= 44.444444  R,EQ.RATIO= 7.293403  PHI,EQ.RATIO= 7.293403

 THERMODYNAMIC PROPERTIES

 P, BAR            20.000   22.500   25.000   27.500   30.000   32.500   35.000   37.500
 T, K             1407.95  1413.49  1418.65  1423.48  1428.02  1432.31  1436.37  1440.23
 RHO, KG/CU M    3.2127 0 3.6087 0 4.0040 0 4.3987 0 4.7928 0 5.1864 0 5.5796 0 5.9723 0
 H, KJ/KG          199.67   199.67   199.67   199.67   199.67   199.67   199.67   199.67
 U, KJ/KG         -422.87  -423.83  -424.71  -425.52  -426.27  -426.97  -427.62  -428.23
 G, KJ/KG        -15224.0 -15211.2 -15201.6 -15194.4 -15189.0 -15185.0 -15182.1 -15180.0
 S, KJ/(KG)(K)    10.9547  10.9027  10.8563  10.8144  10.7762  10.7412  10.7088  10.6787

 M, (1/n)          18.804   18.849   18.891   18.931   18.969   19.005   19.039   19.071
 MW, MOL WT        14.006   14.044   14.079   14.113   14.145   14.175   14.204   14.232
 (dLV/dLP)t      -1.02794 -1.02974 -1.03138 -1.03290 -1.03430 -1.03561 -1.03683 -1.03797
 (dLV/dLT)p        1.2486   1.2634   1.2767   1.2889   1.3001   1.3104   1.3200   1.3289
 Cp, KJ/(KG)(K)    3.3596   3.4156   3.4657   3.5106   3.5514   3.5885   3.6225   3.6537
 GAMMAs            1.2154   1.2142   1.2130   1.2120   1.2111   1.2103   1.2095   1.2088
 SON VEL,M/SEC      869.9    870.1    870.3    870.5    870.7    870.9    871.0    871.2

 MASS FRACTIONS

 CH4              0.01974  0.02126  0.02268  0.02402  0.02529  0.02649  0.02764  0.02873
 *CO              0.30385  0.30288  0.30198  0.30116  0.30039  0.29966  0.29899  0.29834
 *CO2             0.00309  0.00327  0.00344  0.00359  0.00374  0.00387  0.00400  0.00412
 CH3CN            0.00000  0.00001  0.00001  0.00001  0.00001  0.00001  0.00001  0.00001
 C2H4             0.00002  0.00002  0.00002  0.00002  0.00003  0.00003  0.00003  0.00003
 C2H6             0.00000  0.00000  0.00001  0.00001  0.00001  0.00001  0.00001  0.00001
 HCN              0.00032  0.00033  0.00034  0.00035  0.00037  0.00038  0.00039  0.00040
 *H2              0.05643  0.05599  0.05558  0.05519  0.05483  0.05448  0.05415  0.05384
 H2O              0.00719  0.00766  0.00810  0.00850  0.00888  0.00923  0.00957  0.00988
 NH3              0.00028  0.00031  0.00033  0.00036  0.00038  0.00040  0.00043  0.00045
 *N2              0.35320  0.35317  0.35315  0.35312  0.35309  0.35307  0.35304  0.35302
 AL2O3(a)         0.04199  0.04199  0.04199  0.04199  0.04199  0.04199  0.04199  0.04199
 C(gr)            0.21388  0.21310  0.21236  0.21166  0.21100  0.21036  0.20975  0.20917

  * THERMODYNAMIC PROPERTIES FITTED TO 20000.K

 NOTE. WEIGHT FRACTION OF FUEL IN TOTAL FUELS AND OF OXIDANT IN TOTAL OXIDANTS









         THERMODYNAMIC EQUILIBRIUM COMBUSTION PROPERTIES AT ASSIGNED

                                   PRESSURES

 CASE = Boundless      

             REACTANT                    WT FRACTION      ENERGY      TEMP
                                          (SEE NOTE)     KJ/KG-MOL      K  
 OXIDANT     N2O(L),298.15K               1.0000000     65100.000    298.150
 FUEL        C32H66(a)                    0.9300000   -967800.000    298.150
 FUEL        AL                           0.0500000    330000.000    298.150
 FUEL        C8H16,1-octene               0.0200000    -83590.000    298.150

 O/F=    1.25000  %FUEL= 44.444444  R,EQ.RATIO= 7.293403  PHI,EQ.RATIO= 7.293403

 THERMODYNAMIC PROPERTIES

 P, BAR            40.000   42.500   45.000   47.500   50.000   55.000   60.000   65.000
 T, K             1443.91  1447.43  1450.80  1454.03  1457.14  1463.02  1468.51  1473.66
 RHO, KG/CU M    6.3646 0 6.7566 0 7.1481 0 7.5394 0 7.9304 0 8.7114 0 9.4915 0 1.0271 1
 H, KJ/KG          199.67   199.67   199.67   199.67   199.67   199.67   199.67   199.67
 U, KJ/KG         -428.81  -429.35  -429.87  -430.36  -430.82  -431.69  -432.48  -433.21
 G, KJ/KG        -15178.8 -15178.1 -15177.8 -15178.0 -15178.5 -15180.4 -15183.0 -15186.2
 S, KJ/(KG)(K)    10.6505  10.6242  10.5994  10.5759  10.5537  10.5125  10.4750  10.4406

 M, (1/n)          19.102   19.132   19.161   19.189   19.216   19.267   19.315   19.361
 MW, MOL WT        14.259   14.285   14.310   14.334   14.358   14.402   14.444   14.484
 (dLV/dLP)t      -1.03904 -1.04006 -1.04101 -1.04192 -1.04278 -1.04439 -1.04585 -1.04719
 (dLV/dLT)p        1.3372   1.3450   1.3523   1.3592   1.3657   1.3776   1.3884   1.3982
 Cp, KJ/(KG)(K)    3.6826   3.7094   3.7342   3.7574   3.7791   3.8185   3.8535   3.8846
 GAMMAs            1.2082   1.2075   1.2070   1.2064   1.2059   1.2050   1.2041   1.2033
 SON VEL,M/SEC      871.4    871.5    871.7    871.8    872.0    872.2    872.4    872.7

 MASS FRACTIONS

 CH4              0.02977  0.03078  0.03174  0.03267  0.03356  0.03526  0.03685  0.03834
 *CO              0.29774  0.29716  0.29661  0.29609  0.29559  0.29464  0.29377  0.29295
 *CO2             0.00423  0.00433  0.00444  0.00453  0.00462  0.00480  0.00496  0.00510
 CH3CN            0.00001  0.00001  0.00001  0.00001  0.00001  0.00001  0.00001  0.00002
 C2H4             0.00004  0.00004  0.00004  0.00004  0.00004  0.00005  0.00005  0.00006
 C2H6             0.00001  0.00001  0.00001  0.00001  0.00001  0.00002  0.00002  0.00002
 HCN              0.00041  0.00042  0.00043  0.00044  0.00044  0.00046  0.00048  0.00049
 HNC              0.00000  0.00001  0.00001  0.00001  0.00001  0.00001  0.00001  0.00001
 HNCO             0.00000  0.00000  0.00000  0.00000  0.00001  0.00001  0.00001  0.00001
 *H2              0.05353  0.05325  0.05297  0.05270  0.05245  0.05196  0.05150  0.05107
 H2O              0.01018  0.01046  0.01073  0.01099  0.01124  0.01171  0.01214  0.01254
 NH3              0.00047  0.00049  0.00051  0.00053  0.00055  0.00058  0.00062  0.00065
 *N2              0.35300  0.35298  0.35295  0.35293  0.35291  0.35287  0.35283  0.35280
 AL2O3(a)         0.04199  0.04199  0.04199  0.04199  0.04199  0.04199  0.04199  0.04199
 C(gr)            0.20861  0.20807  0.20755  0.20705  0.20656  0.20563  0.20476  0.20393

  * THERMODYNAMIC PROPERTIES FITTED TO 20000.K

 NOTE. WEIGHT FRACTION OF FUEL IN TOTAL FUELS AND OF OXIDANT IN TOTAL OXIDANTS









         THERMODYNAMIC EQUILIBRIUM COMBUSTION PROPERTIES AT ASSIGNED

                                   PRESSURES

 CASE = Boundless      

             REACTANT                    WT FRACTION      ENERGY      TEMP
                                          (SEE NOTE)     KJ/KG-MOL      K  
 OXIDANT     N2O(L),298.15K               1.0000000     65100.000    298.150
 FUEL        C32H66(a)                    0.9300000   -967800.000    298.150
 FUEL        AL                           0.0500000    330000.000    298.150
 FUEL        C8H16,1-octene               0.0200000    -83590.000    298.150

 O/F=    1.25000  %FUEL= 44.444444  R,EQ.RATIO= 7.293403  PHI,EQ.RATIO= 7.293403

 THERMODYNAMIC PROPERTIES

 P, BAR            70.000
 T, K             1478.51
 RHO, KG/CU M    1.1049 1
 H, KJ/KG          199.67
 U, KJ/KG         -433.88
 G, KJ/KG        -15189.8
 S, KJ/(KG)(K)    10.4088

 M, (1/n)          19.404
 MW, MOL WT        14.522
 (dLV/dLP)t      -1.04842
 (dLV/dLT)p        1.4072
 Cp, KJ/(KG)(K)    3.9126
 GAMMAs            1.2026
 SON VEL,M/SEC      872.9

 MASS FRACTIONS

 CH4              0.03976
 *CO              0.29219
 *CO2             0.00524
 CH3CN            0.00002
 C2H4             0.00006
 C2H6             0.00002
 HCN              0.00051
 HNC              0.00001
 HNCO             0.00001
 *H2              0.05067
 H2O              0.01292
 NH3              0.00069
 *N2              0.35276
 AL2O3(a)         0.04199
 C(gr)            0.20315

  * THERMODYNAMIC PROPERTIES FITTED TO 20000.K

 NOTE. WEIGHT FRACTION OF FUEL IN TOTAL FUELS AND OF OXIDANT IN TOTAL OXIDANTS









         THERMODYNAMIC EQUILIBRIUM COMBUSTION PROPERTIES AT ASSIGNED

                                   PRESSURES

 CASE = Boundless      

             REACTANT                    WT FRACTION      ENERGY      TEMP
                                          (SEE NOTE)     KJ/KG-MOL      K  
 OXIDANT     N2O(L),298.15K               1.0000000     65100.000    298.150
 FUEL        C32H66(a)                    0.9300000   -967800.000    298.150
 FUEL        AL                           0.0500000    330000.000    298.150
 FUEL        C8H16,1-octene               0.0200000    -83590.000    298.150

 O/F=    1.50000  %FUEL= 40.000000  R,EQ.RATIO= 6.077836  PHI,EQ.RATIO= 6.077836

 THERMODYNAMIC PROPERTIES

 P, BAR            1.0000   2.5000   5.0000   7.5000   10.000   12.500   15.000   17.500
 T, K             1467.72  1471.75  1477.94  1483.60  1488.82  1493.67  1498.20  1502.46
 RHO, KG/CU M    1.5206-1 3.7971-1 7.5812-1 1.1354 0 1.5118 0 1.8874 0 2.2622 0 2.6363 0
 H, KJ/KG          327.61   327.61   327.61   327.61   327.61   327.61   327.61   327.61
 U, KJ/KG         -330.03  -330.78  -331.91  -332.93  -333.85  -334.69  -335.47  -336.19
 G, KJ/KG        -17819.5 -17265.6 -16881.8 -16679.5 -16548.8 -16455.9 -16385.8 -16330.9
 S, KJ/(KG)(K)    12.3642  11.9539  11.6442  11.4634  11.3355  11.2364  11.1557  11.0875

 M, (1/n)          18.556   18.586   18.632   18.675   18.714   18.751   18.786   18.819
 MW, MOL WT        14.563   14.590   14.631   14.670   14.706   14.740   14.772   14.802
 (dLV/dLP)t      -1.00112 -1.00270 -1.00509 -1.00725 -1.00921 -1.01101 -1.01266 -1.01420
 (dLV/dLT)p        1.0096   1.0228   1.0429   1.0607   1.0768   1.0914   1.1048   1.1171
 Cp, KJ/(KG)(K)    2.2586   2.3126   2.3935   2.4647   2.5282   2.5853   2.6371   2.6844
 GAMMAs            1.2517   1.2495   1.2464   1.2438   1.2415   1.2396   1.2379   1.2364
 SON VEL,M/SEC      907.3    907.0    906.7    906.4    906.2    906.1    906.0    905.9

 MASS FRACTIONS

 CH4              0.00070  0.00169  0.00323  0.00465  0.00597  0.00721  0.00837  0.00947
 *CO              0.35016  0.34941  0.34825  0.34722  0.34627  0.34540  0.34459  0.34384
 *CO2             0.00011  0.00027  0.00051  0.00073  0.00092  0.00110  0.00127  0.00142
 C2H2,acetylene   0.00000  0.00000  0.00000  0.00001  0.00001  0.00001  0.00001  0.00001
 CH3CN            0.00000  0.00000  0.00000  0.00000  0.00000  0.00000  0.00000  0.00001
 C2H4             0.00000  0.00000  0.00000  0.00001  0.00001  0.00001  0.00001  0.00002
 HCN              0.00052  0.00053  0.00055  0.00057  0.00059  0.00061  0.00063  0.00064
 HNC              0.00001  0.00001  0.00001  0.00001  0.00001  0.00001  0.00001  0.00001
 *H2              0.05581  0.05552  0.05506  0.05465  0.05426  0.05390  0.05356  0.05324
 H2O              0.00025  0.00061  0.00115  0.00164  0.00209  0.00251  0.00289  0.00325
 NH3              0.00001  0.00003  0.00006  0.00008  0.00011  0.00013  0.00015  0.00017
 *N2              0.38161  0.38159  0.38155  0.38152  0.38149  0.38146  0.38143  0.38141
 AL2O3(a)         0.03779  0.03779  0.03779  0.03779  0.03779  0.03779  0.03779  0.03779
 C(gr)            0.17302  0.17255  0.17181  0.17113  0.17048  0.16987  0.16929  0.16873

  * THERMODYNAMIC PROPERTIES FITTED TO 20000.K

 NOTE. WEIGHT FRACTION OF FUEL IN TOTAL FUELS AND OF OXIDANT IN TOTAL OXIDANTS









         THERMODYNAMIC EQUILIBRIUM COMBUSTION PROPERTIES AT ASSIGNED

                                   PRESSURES

 CASE = Boundless      

             REACTANT                    WT FRACTION      ENERGY      TEMP
                                          (SEE NOTE)     KJ/KG-MOL      K  
 OXIDANT     N2O(L),298.15K               1.0000000     65100.000    298.150
 FUEL        C32H66(a)                    0.9300000   -967800.000    298.150
 FUEL        AL                           0.0500000    330000.000    298.150
 FUEL        C8H16,1-octene               0.0200000    -83590.000    298.150

 O/F=    1.50000  %FUEL= 40.000000  R,EQ.RATIO= 6.077836  PHI,EQ.RATIO= 6.077836

 THERMODYNAMIC PROPERTIES

 P, BAR            20.000   22.500   25.000   27.500   30.000   32.500   35.000   37.500
 T, K             1506.49  1510.30  1513.93  1517.39  1520.69  1523.86  1526.90  1529.83
 RHO, KG/CU M    3.0099 0 3.3829 0 3.7555 0 4.1276 0 4.4992 0 4.8705 0 5.2414 0 5.6120 0
 H, KJ/KG          327.61   327.61   327.61   327.61   327.61   327.61   327.61   327.61
 U, KJ/KG         -336.86  -337.49  -338.08  -338.64  -339.17  -339.67  -340.15  -340.60
 G, KJ/KG        -16286.8 -16250.4 -16220.0 -16194.3 -16172.2 -16153.2 -16136.6 -16122.0
 S, KJ/(KG)(K)    11.0285  10.9766  10.9303  10.8884  10.8502  10.8151  10.7827  10.7526

 M, (1/n)          18.851   18.880   18.909   18.936   18.963   18.988   19.012   19.036
 MW, MOL WT        14.831   14.859   14.886   14.911   14.936   14.960   14.983   15.005
 (dLV/dLP)t      -1.01564 -1.01698 -1.01824 -1.01943 -1.02056 -1.02162 -1.02264 -1.02360
 (dLV/dLT)p        1.1286   1.1392   1.1491   1.1585   1.1672   1.1755   1.1833   1.1907
 Cp, KJ/(KG)(K)    2.7278   2.7678   2.8050   2.8396   2.8719   2.9021   2.9305   2.9573
 GAMMAs            1.2350   1.2338   1.2327   1.2317   1.2307   1.2298   1.2290   1.2282
 SON VEL,M/SEC      905.9    905.9    905.9    905.9    905.9    905.9    905.9    905.9

 MASS FRACTIONS

 CH4              0.01051  0.01150  0.01245  0.01335  0.01422  0.01506  0.01586  0.01664
 *CO              0.34313  0.34247  0.34184  0.34124  0.34068  0.34014  0.33962  0.33913
 *CO2             0.00156  0.00170  0.00182  0.00194  0.00206  0.00216  0.00227  0.00236
 C2H2,acetylene   0.00001  0.00001  0.00001  0.00001  0.00001  0.00001  0.00001  0.00001
 CH3CN            0.00001  0.00001  0.00001  0.00001  0.00001  0.00001  0.00001  0.00001
 C2H4             0.00002  0.00002  0.00002  0.00003  0.00003  0.00003  0.00003  0.00004
 HCN              0.00066  0.00068  0.00069  0.00071  0.00072  0.00073  0.00075  0.00076
 HNC              0.00001  0.00001  0.00001  0.00001  0.00001  0.00001  0.00001  0.00001
 *H2              0.05293  0.05264  0.05237  0.05210  0.05185  0.05160  0.05137  0.05114
 H2O              0.00359  0.00390  0.00420  0.00449  0.00476  0.00502  0.00527  0.00550
 NH3              0.00019  0.00022  0.00023  0.00025  0.00027  0.00029  0.00031  0.00033
 *N2              0.38138  0.38135  0.38133  0.38131  0.38128  0.38126  0.38124  0.38122
 AL2O3(a)         0.03779  0.03779  0.03779  0.03779  0.03779  0.03779  0.03779  0.03779
 C(gr)            0.16821  0.16770  0.16722  0.16675  0.16630  0.16587  0.16545  0.16504

  * THERMODYNAMIC PROPERTIES FITTED TO 20000.K

 NOTE. WEIGHT FRACTION OF FUEL IN TOTAL FUELS AND OF OXIDANT IN TOTAL OXIDANTS









         THERMODYNAMIC EQUILIBRIUM COMBUSTION PROPERTIES AT ASSIGNED

                                   PRESSURES

 CASE = Boundless      

             REACTANT                    WT FRACTION      ENERGY      TEMP
                                          (SEE NOTE)     KJ/KG-MOL      K  
 OXIDANT     N2O(L),298.15K               1.0000000     65100.000    298.150
 FUEL        C32H66(a)                    0.9300000   -967800.000    298.150
 FUEL        AL                           0.0500000    330000.000    298.150
 FUEL        C8H16,1-octene               0.0200000    -83590.000    298.150

 O/F=    1.50000  %FUEL= 40.000000  R,EQ.RATIO= 6.077836  PHI,EQ.RATIO= 6.077836

 THERMODYNAMIC PROPERTIES

 P, BAR            40.000   42.500   45.000   47.500   50.000   55.000   60.000   65.000
 T, K             1532.65  1535.38  1538.01  1540.56  1543.02  1547.75  1552.21  1556.43
 RHO, KG/CU M    5.9823 0 6.3522 0 6.7219 0 7.0913 0 7.4605 0 8.1981 0 8.9348 0 9.6708 0
 H, KJ/KG          327.61   327.61   327.61   327.61   327.61   327.61   327.61   327.61
 U, KJ/KG         -341.03  -341.45  -341.84  -342.22  -342.59  -343.28  -343.92  -344.52
 G, KJ/KG        -16109.1 -16097.8 -16087.6 -16078.6 -16070.5 -16056.6 -16045.4 -16036.1
 S, KJ/(KG)(K)    10.7244  10.6979  10.6731  10.6495  10.6272  10.5859  10.5482  10.5136

 M, (1/n)          19.058   19.080   19.102   19.123   19.143   19.182   19.219   19.254
 MW, MOL WT        15.026   15.047   15.068   15.087   15.107   15.144   15.179   15.213
 (dLV/dLP)t      -1.02453 -1.02541 -1.02625 -1.02706 -1.02784 -1.02931 -1.03067 -1.03194
 (dLV/dLT)p        1.1978   1.2045   1.2109   1.2170   1.2228   1.2338   1.2439   1.2532
 Cp, KJ/(KG)(K)    2.9826   3.0065   3.0292   3.0507   3.0712   3.1094   3.1442   3.1762
 GAMMAs            1.2275   1.2268   1.2261   1.2255   1.2249   1.2238   1.2228   1.2219
 SON VEL,M/SEC      905.9    906.0    906.0    906.0    906.1    906.1    906.2    906.2

 MASS FRACTIONS

 CH4              0.01739  0.01812  0.01882  0.01951  0.02017  0.02144  0.02265  0.02379
 *CO              0.33865  0.33820  0.33776  0.33733  0.33692  0.33614  0.33541  0.33472
 *CO2             0.00246  0.00255  0.00264  0.00272  0.00280  0.00296  0.00310  0.00324
 C2H2,acetylene   0.00001  0.00001  0.00001  0.00001  0.00001  0.00001  0.00001  0.00001
 CH3CN            0.00001  0.00001  0.00001  0.00001  0.00002  0.00002  0.00002  0.00002
 C2H4             0.00004  0.00004  0.00004  0.00004  0.00005  0.00005  0.00006  0.00006
 C2H6             0.00001  0.00001  0.00001  0.00001  0.00001  0.00001  0.00001  0.00001
 HCN              0.00077  0.00079  0.00080  0.00081  0.00082  0.00084  0.00087  0.00089
 HNC              0.00001  0.00001  0.00001  0.00001  0.00001  0.00001  0.00001  0.00002
 HNCO             0.00000  0.00000  0.00001  0.00001  0.00001  0.00001  0.00001  0.00001
 *H2              0.05093  0.05071  0.05051  0.05031  0.05012  0.04975  0.04940  0.04907
 H2O              0.00573  0.00595  0.00616  0.00636  0.00656  0.00694  0.00729  0.00762
 NH3              0.00034  0.00036  0.00038  0.00039  0.00041  0.00044  0.00047  0.00050
 *N2              0.38119  0.38117  0.38115  0.38113  0.38111  0.38108  0.38104  0.38100
 AL2O3(a)         0.03779  0.03779  0.03779  0.03779  0.03779  0.03779  0.03779  0.03779
 C(gr)            0.16465  0.16427  0.16390  0.16354  0.16318  0.16251  0.16186  0.16125

  * THERMODYNAMIC PROPERTIES FITTED TO 20000.K

 NOTE. WEIGHT FRACTION OF FUEL IN TOTAL FUELS AND OF OXIDANT IN TOTAL OXIDANTS









         THERMODYNAMIC EQUILIBRIUM COMBUSTION PROPERTIES AT ASSIGNED

                                   PRESSURES

 CASE = Boundless      

             REACTANT                    WT FRACTION      ENERGY      TEMP
                                          (SEE NOTE)     KJ/KG-MOL      K  
 OXIDANT     N2O(L),298.15K               1.0000000     65100.000    298.150
 FUEL        C32H66(a)                    0.9300000   -967800.000    298.150
 FUEL        AL                           0.0500000    330000.000    298.150
 FUEL        C8H16,1-octene               0.0200000    -83590.000    298.150

 O/F=    1.50000  %FUEL= 40.000000  R,EQ.RATIO= 6.077836  PHI,EQ.RATIO= 6.077836

 THERMODYNAMIC PROPERTIES

 P, BAR            70.000
 T, K             1560.46
 RHO, KG/CU M    1.0406 1
 H, KJ/KG          327.61
 U, KJ/KG         -345.08
 G, KJ/KG        -16028.5
 S, KJ/(KG)(K)    10.4816

 M, (1/n)          19.287
 MW, MOL WT        15.245
 (dLV/dLP)t      -1.03313
 (dLV/dLT)p        1.2619
 Cp, KJ/(KG)(K)    3.2057
 GAMMAs            1.2210
 SON VEL,M/SEC      906.3

 MASS FRACTIONS

 CH4              0.02489
 *CO              0.33406
 *CO2             0.00337
 C2H2,acetylene   0.00001
 CH3CN            0.00002
 C2H4             0.00006
 C2H6             0.00001
 HCN              0.00091
 HNC              0.00002
 HNCO             0.00001
 *H2              0.04875
 HCHO,formaldehy  0.00001
 H2O              0.00794
 NH3              0.00053
 *N2              0.38097
 AL2O3(a)         0.03779
 C(gr)            0.16066

  * THERMODYNAMIC PROPERTIES FITTED TO 20000.K

 NOTE. WEIGHT FRACTION OF FUEL IN TOTAL FUELS AND OF OXIDANT IN TOTAL OXIDANTS









         THERMODYNAMIC EQUILIBRIUM COMBUSTION PROPERTIES AT ASSIGNED

                                   PRESSURES

 CASE = Boundless      

             REACTANT                    WT FRACTION      ENERGY      TEMP
                                          (SEE NOTE)     KJ/KG-MOL      K  
 OXIDANT     N2O(L),298.15K               1.0000000     65100.000    298.150
 FUEL        C32H66(a)                    0.9300000   -967800.000    298.150
 FUEL        AL                           0.0500000    330000.000    298.150
 FUEL        C8H16,1-octene               0.0200000    -83590.000    298.150

 O/F=    2.00000  %FUEL= 33.333333  R,EQ.RATIO= 4.558377  PHI,EQ.RATIO= 4.558377

 THERMODYNAMIC PROPERTIES

 P, BAR            1.0000   2.5000   5.0000   7.5000   10.000   12.500   15.000   17.500
 T, K             1690.89  1692.19  1694.09  1695.91  1697.66  1699.37  1701.04  1702.67
 RHO, KG/CU M    1.3543-1 3.3848-1 6.7671-1 1.0147 0 1.3525 0 1.6901 0 2.0274 0 2.3646 0
 H, KJ/KG          519.53   519.53   519.53   519.53   519.53   519.53   519.53   519.53
 U, KJ/KG         -218.83  -219.06  -219.35  -219.61  -219.85  -220.09  -220.32  -220.55
 G, KJ/KG        -20462.4 -19801.5 -19312.1 -19033.5 -18840.9 -18695.3 -18579.2 -18483.4
 S, KJ/(KG)(K)    12.4088  12.0088  11.7063  11.5295  11.4042  11.3070  11.2277  11.1607

 M, (1/n)          19.041   19.049   19.064   19.077   19.091   19.104   19.116   19.129
 MW, MOL WT        16.394   16.404   16.420   16.436   16.451   16.466   16.480   16.494
 (dLV/dLP)t      -1.00032 -1.00076 -1.00148 -1.00217 -1.00285 -1.00351 -1.00415 -1.00477
 (dLV/dLT)p        1.0029   1.0058   1.0108   1.0157   1.0205   1.0251   1.0296   1.0340
 Cp, KJ/(KG)(K)    2.1296   2.1370   2.1530   2.1694   2.1855   2.2012   2.2165   2.2314
 GAMMAs            1.2593   1.2592   1.2586   1.2580   1.2573   1.2567   1.2561   1.2555
 SON VEL,M/SEC      964.3    964.4    964.4    964.3    964.2    964.1    964.0    963.9

 MASS FRACTIONS

 CH4              0.00019  0.00047  0.00092  0.00136  0.00180  0.00222  0.00264  0.00304
 *CO              0.39820  0.39802  0.39772  0.39744  0.39716  0.39689  0.39662  0.39636
 *CO2             0.00003  0.00006  0.00012  0.00018  0.00024  0.00030  0.00036  0.00041
 C2H2,acetylene   0.00004  0.00004  0.00004  0.00004  0.00004  0.00004  0.00004  0.00004
 CH3CN            0.00000  0.00000  0.00000  0.00000  0.00000  0.00001  0.00001  0.00001
 C2H4             0.00000  0.00000  0.00001  0.00001  0.00001  0.00001  0.00002  0.00002
 HCN              0.00202  0.00203  0.00205  0.00207  0.00209  0.00210  0.00212  0.00213
 HNC              0.00005  0.00005  0.00005  0.00005  0.00005  0.00005  0.00006  0.00006
 *H2              0.04656  0.04648  0.04635  0.04622  0.04609  0.04596  0.04584  0.04572
 H2O              0.00006  0.00014  0.00028  0.00041  0.00055  0.00067  0.00080  0.00092
 NH3              0.00001  0.00001  0.00003  0.00004  0.00005  0.00006  0.00008  0.00009
 *N2              0.42324  0.42323  0.42321  0.42319  0.42317  0.42315  0.42313  0.42311
 AL2O3(a)         0.03149  0.03149  0.03149  0.03149  0.03149  0.03149  0.03149  0.03149
 C(gr)            0.09811  0.09797  0.09772  0.09748  0.09725  0.09702  0.09680  0.09658

  * THERMODYNAMIC PROPERTIES FITTED TO 20000.K

 NOTE. WEIGHT FRACTION OF FUEL IN TOTAL FUELS AND OF OXIDANT IN TOTAL OXIDANTS









         THERMODYNAMIC EQUILIBRIUM COMBUSTION PROPERTIES AT ASSIGNED

                                   PRESSURES

 CASE = Boundless      

             REACTANT                    WT FRACTION      ENERGY      TEMP
                                          (SEE NOTE)     KJ/KG-MOL      K  
 OXIDANT     N2O(L),298.15K               1.0000000     65100.000    298.150
 FUEL        C32H66(a)                    0.9300000   -967800.000    298.150
 FUEL        AL                           0.0500000    330000.000    298.150
 FUEL        C8H16,1-octene               0.0200000    -83590.000    298.150

 O/F=    2.00000  %FUEL= 33.333333  R,EQ.RATIO= 4.558377  PHI,EQ.RATIO= 4.558377

 THERMODYNAMIC PROPERTIES

 P, BAR            20.000   22.500   25.000   27.500   30.000   32.500   35.000   37.500
 T, K             1704.26  1705.82  1707.35  1708.84  1710.31  1711.75  1713.17  1714.56
 RHO, KG/CU M    2.7016 0 3.0385 0 3.3752 0 3.7117 0 4.0480 0 4.3843 0 4.7203 0 5.0563 0
 H, KJ/KG          519.53   519.53   519.53   519.53   519.53   519.53   519.53   519.53
 U, KJ/KG         -220.76  -220.97  -221.18  -221.38  -221.57  -221.76  -221.94  -222.13
 G, KJ/KG        -18402.3 -18332.4 -18271.2 -18217.0 -18168.6 -18125.0 -18085.4 -18049.4
 S, KJ/(KG)(K)    11.1027  11.0515  11.0058  10.9645  10.9267  10.8921  10.8600  10.8301

 M, (1/n)          19.141   19.153   19.165   19.177   19.188   19.200   19.211   19.222
 MW, MOL WT        16.508   16.522   16.536   16.549   16.562   16.575   16.588   16.600
 (dLV/dLP)t      -1.00538 -1.00597 -1.00654 -1.00710 -1.00765 -1.00819 -1.00871 -1.00922
 (dLV/dLT)p        1.0382   1.0424   1.0464   1.0503   1.0542   1.0579   1.0615   1.0651
 Cp, KJ/(KG)(K)    2.2458   2.2599   2.2735   2.2868   2.2996   2.3122   2.3244   2.3363
 GAMMAs            1.2549   1.2543   1.2538   1.2532   1.2527   1.2522   1.2517   1.2513
 SON VEL,M/SEC      963.8    963.8    963.7    963.6    963.5    963.5    963.4    963.3

 MASS FRACTIONS

 CH4              0.00344  0.00384  0.00422  0.00460  0.00497  0.00533  0.00569  0.00604
 *CO              0.39611  0.39586  0.39561  0.39537  0.39514  0.39491  0.39468  0.39446
 *CO2             0.00046  0.00052  0.00057  0.00062  0.00067  0.00071  0.00076  0.00081
 C2H2,acetylene   0.00005  0.00005  0.00005  0.00005  0.00005  0.00005  0.00005  0.00005
 CH3CN            0.00001  0.00001  0.00001  0.00001  0.00001  0.00001  0.00001  0.00002
 C2H4             0.00002  0.00002  0.00003  0.00003  0.00003  0.00003  0.00003  0.00004
 HCN              0.00215  0.00216  0.00218  0.00219  0.00221  0.00222  0.00224  0.00225
 HNC              0.00006  0.00006  0.00006  0.00006  0.00006  0.00006  0.00006  0.00006
 *H2              0.04561  0.04549  0.04538  0.04527  0.04516  0.04505  0.04495  0.04485
 H2O              0.00104  0.00116  0.00127  0.00139  0.00150  0.00160  0.00171  0.00181
 NH3              0.00010  0.00011  0.00012  0.00013  0.00014  0.00016  0.00017  0.00018
 *N2              0.42309  0.42308  0.42306  0.42304  0.42302  0.42300  0.42299  0.42297
 AL2O3(a)         0.03149  0.03149  0.03149  0.03149  0.03149  0.03149  0.03149  0.03149
 C(gr)            0.09636  0.09615  0.09595  0.09574  0.09554  0.09535  0.09515  0.09496

  * THERMODYNAMIC PROPERTIES FITTED TO 20000.K

 NOTE. WEIGHT FRACTION OF FUEL IN TOTAL FUELS AND OF OXIDANT IN TOTAL OXIDANTS









         THERMODYNAMIC EQUILIBRIUM COMBUSTION PROPERTIES AT ASSIGNED

                                   PRESSURES

 CASE = Boundless      

             REACTANT                    WT FRACTION      ENERGY      TEMP
                                          (SEE NOTE)     KJ/KG-MOL      K  
 OXIDANT     N2O(L),298.15K               1.0000000     65100.000    298.150
 FUEL        C32H66(a)                    0.9300000   -967800.000    298.150
 FUEL        AL                           0.0500000    330000.000    298.150
 FUEL        C8H16,1-octene               0.0200000    -83590.000    298.150

 O/F=    2.00000  %FUEL= 33.333333  R,EQ.RATIO= 4.558377  PHI,EQ.RATIO= 4.558377

 THERMODYNAMIC PROPERTIES

 P, BAR            40.000   42.500   45.000   47.500   50.000   55.000   60.000   65.000
 T, K             1715.92  1717.26  1718.58  1719.88  1721.16  1723.65  1726.07  1728.41
 RHO, KG/CU M    5.3921 0 5.7277 0 6.0633 0 6.3987 0 6.7340 0 7.4043 0 8.0742 0 8.7436 0
 H, KJ/KG          519.53   519.53   519.53   519.53   519.53   519.53   519.53   519.53
 U, KJ/KG         -222.30  -222.47  -222.64  -222.81  -222.97  -223.28  -223.58  -223.87
 G, KJ/KG        -18016.2 -17985.7 -17957.5 -17931.3 -17906.9 -17862.8 -17823.9 -17789.3
 S, KJ/(KG)(K)    10.8022  10.7760  10.7513  10.7280  10.7059  10.6648  10.6273  10.5928

 M, (1/n)          19.232   19.243   19.253   19.263   19.274   19.293   19.313   19.331
 MW, MOL WT        16.612   16.625   16.637   16.648   16.660   16.683   16.705   16.727
 (dLV/dLP)t      -1.00972 -1.01020 -1.01068 -1.01115 -1.01160 -1.01249 -1.01334 -1.01416
 (dLV/dLT)p        1.0685   1.0719   1.0752   1.0784   1.0816   1.0877   1.0935   1.0991
 Cp, KJ/(KG)(K)    2.3479   2.3592   2.3702   2.3810   2.3915   2.4118   2.4312   2.4497
 GAMMAs            1.2508   1.2503   1.2499   1.2495   1.2491   1.2483   1.2475   1.2468
 SON VEL,M/SEC      963.3    963.2    963.1    963.1    963.0    962.9    962.8    962.7

 MASS FRACTIONS

 CH3              0.00001  0.00001  0.00001  0.00001  0.00001  0.00001  0.00001  0.00001
 CH4              0.00638  0.00672  0.00706  0.00738  0.00771  0.00834  0.00896  0.00955
 *CO              0.39425  0.39403  0.39382  0.39361  0.39341  0.39302  0.39263  0.39226
 *CO2             0.00085  0.00090  0.00094  0.00098  0.00103  0.00111  0.00119  0.00127
 C2H2,acetylene   0.00005  0.00005  0.00005  0.00005  0.00005  0.00005  0.00005  0.00005
 CH2CO,ketene     0.00000  0.00000  0.00000  0.00000  0.00000  0.00000  0.00000  0.00001
 CH3CN            0.00002  0.00002  0.00002  0.00002  0.00002  0.00002  0.00003  0.00003
 C2H4             0.00004  0.00004  0.00004  0.00005  0.00005  0.00005  0.00006  0.00006
 HCN              0.00227  0.00228  0.00229  0.00231  0.00232  0.00234  0.00237  0.00239
 HNC              0.00006  0.00006  0.00006  0.00006  0.00006  0.00006  0.00007  0.00007
 HNCO             0.00001  0.00001  0.00001  0.00001  0.00001  0.00001  0.00001  0.00001
 *H2              0.04475  0.04465  0.04455  0.04445  0.04436  0.04417  0.04399  0.04382
 H2O              0.00192  0.00202  0.00212  0.00221  0.00231  0.00249  0.00267  0.00285
 NH3              0.00019  0.00020  0.00021  0.00022  0.00023  0.00025  0.00027  0.00029
 *N2              0.42295  0.42294  0.42292  0.42291  0.42289  0.42286  0.42283  0.42280
 AL2O3(a)         0.03149  0.03149  0.03149  0.03149  0.03149  0.03149  0.03149  0.03149
 C(gr)            0.09477  0.09459  0.09441  0.09423  0.09405  0.09371  0.09337  0.09304

  * THERMODYNAMIC PROPERTIES FITTED TO 20000.K

 NOTE. WEIGHT FRACTION OF FUEL IN TOTAL FUELS AND OF OXIDANT IN TOTAL OXIDANTS









         THERMODYNAMIC EQUILIBRIUM COMBUSTION PROPERTIES AT ASSIGNED

                                   PRESSURES

 CASE = Boundless      

             REACTANT                    WT FRACTION      ENERGY      TEMP
                                          (SEE NOTE)     KJ/KG-MOL      K  
 OXIDANT     N2O(L),298.15K               1.0000000     65100.000    298.150
 FUEL        C32H66(a)                    0.9300000   -967800.000    298.150
 FUEL        AL                           0.0500000    330000.000    298.150
 FUEL        C8H16,1-octene               0.0200000    -83590.000    298.150

 O/F=    2.00000  %FUEL= 33.333333  R,EQ.RATIO= 4.558377  PHI,EQ.RATIO= 4.558377

 THERMODYNAMIC PROPERTIES

 P, BAR            70.000
 T, K             1730.69
 RHO, KG/CU M    9.4127 0
 H, KJ/KG          519.53
 U, KJ/KG         -224.15
 G, KJ/KG        -17758.3
 S, KJ/(KG)(K)    10.5610

 M, (1/n)          19.350
 MW, MOL WT        16.748
 (dLV/dLP)t      -1.01495
 (dLV/dLT)p        1.1045
 Cp, KJ/(KG)(K)    2.4674
 GAMMAs            1.2461
 SON VEL,M/SEC      962.6

 MASS FRACTIONS

 CH3              0.00001
 CH4              0.01013
 *CO              0.39190
 *CO2             0.00135
 C2H2,acetylene   0.00005
 CH2CO,ketene     0.00001
 CH3CN            0.00003
 C2H4             0.00007
 HCN              0.00242
 HNC              0.00007
 HNCO             0.00001
 *H2              0.04365
 HCHO,formaldehy  0.00001
 H2O              0.00302
 NH3              0.00031
 *N2              0.42277
 AL2O3(a)         0.03149
 C(gr)            0.09272

  * THERMODYNAMIC PROPERTIES FITTED TO 20000.K

 NOTE. WEIGHT FRACTION OF FUEL IN TOTAL FUELS AND OF OXIDANT IN TOTAL OXIDANTS









         THERMODYNAMIC EQUILIBRIUM COMBUSTION PROPERTIES AT ASSIGNED

                                   PRESSURES

 CASE = Boundless      

             REACTANT                    WT FRACTION      ENERGY      TEMP
                                          (SEE NOTE)     KJ/KG-MOL      K  
 OXIDANT     N2O(L),298.15K               1.0000000     65100.000    298.150
 FUEL        C32H66(a)                    0.9300000   -967800.000    298.150
 FUEL        AL                           0.0500000    330000.000    298.150
 FUEL        C8H16,1-octene               0.0200000    -83590.000    298.150

 O/F=    2.25000  %FUEL= 30.769231  R,EQ.RATIO= 4.051891  PHI,EQ.RATIO= 4.051891

 THERMODYNAMIC PROPERTIES

 P, BAR            1.0000   2.5000   5.0000   7.5000   10.000   12.500   15.000   17.500
 T, K             1785.52  1786.64  1787.99  1789.19  1790.34  1791.46  1792.55  1793.63
 RHO, KG/CU M    1.2958-1 3.2385-1 6.4752-1 9.7107-1 1.2945 0 1.6178 0 1.9411 0 2.2642 0
 H, KJ/KG          593.34   593.34   593.34   593.34   593.34   593.34   593.34   593.34
 U, KJ/KG         -178.38  -178.62  -178.83  -179.00  -179.15  -179.29  -179.43  -179.56
 G, KJ/KG        -21568.1 -20874.5 -20355.3 -20056.2 -19847.2 -19687.5 -19559.0 -19451.9
 S, KJ/(KG)(K)    12.4117  12.0158  11.7163  11.5413  11.4171  11.3208  11.2422  11.1758

 M, (1/n)          19.237   19.243   19.252   19.261   19.270   19.278   19.287   19.295
 MW, MOL WT        17.239   17.247   17.258   17.269   17.280   17.290   17.301   17.311
 (dLV/dLP)t      -1.00024 -1.00050 -1.00094 -1.00138 -1.00181 -1.00224 -1.00265 -1.00306
 (dLV/dLT)p        1.0029   1.0041   1.0068   1.0096   1.0125   1.0153   1.0180   1.0207
 Cp, KJ/(KG)(K)    2.1050   2.1028   2.1089   2.1170   2.1255   2.1341   2.1428   2.1513
 GAMMAs            1.2599   1.2605   1.2605   1.2602   1.2599   1.2596   1.2592   1.2589
 SON VEL,M/SEC      986.0    986.4    986.6    986.6    986.5    986.5    986.4    986.4

 MASS FRACTIONS

 CH4              0.00012  0.00029  0.00057  0.00085  0.00112  0.00139  0.00166  0.00192
 *CO              0.41656  0.41645  0.41628  0.41611  0.41593  0.41577  0.41560  0.41544
 *CO2             0.00002  0.00004  0.00008  0.00011  0.00015  0.00018  0.00022  0.00025
 C2H2,acetylene   0.00009  0.00009  0.00009  0.00009  0.00009  0.00009  0.00009  0.00009
 CH3CN            0.00000  0.00000  0.00000  0.00000  0.00000  0.00001  0.00001  0.00001
 C2H4             0.00000  0.00000  0.00001  0.00001  0.00001  0.00001  0.00001  0.00002
 *H               0.00001  0.00001  0.00000  0.00000  0.00000  0.00000  0.00000  0.00000
 HCN              0.00322  0.00324  0.00325  0.00327  0.00328  0.00330  0.00331  0.00333
 HNC              0.00010  0.00010  0.00011  0.00011  0.00011  0.00011  0.00011  0.00011
 *H2              0.04293  0.04288  0.04280  0.04272  0.04264  0.04256  0.04248  0.04241
 H2O              0.00003  0.00008  0.00017  0.00025  0.00033  0.00041  0.00048  0.00056
 NH3              0.00000  0.00001  0.00002  0.00003  0.00004  0.00005  0.00006  0.00007
 *N2              0.43892  0.43890  0.43888  0.43887  0.43885  0.43883  0.43882  0.43880
 AL2O3(a)         0.02906  0.02907  0.02907  0.02907  0.02907  0.02907  0.02907  0.02907
 C(gr)            0.06893  0.06883  0.06867  0.06852  0.06837  0.06822  0.06807  0.06792

  * THERMODYNAMIC PROPERTIES FITTED TO 20000.K

 NOTE. WEIGHT FRACTION OF FUEL IN TOTAL FUELS AND OF OXIDANT IN TOTAL OXIDANTS









         THERMODYNAMIC EQUILIBRIUM COMBUSTION PROPERTIES AT ASSIGNED

                                   PRESSURES

 CASE = Boundless      

             REACTANT                    WT FRACTION      ENERGY      TEMP
                                          (SEE NOTE)     KJ/KG-MOL      K  
 OXIDANT     N2O(L),298.15K               1.0000000     65100.000    298.150
 FUEL        C32H66(a)                    0.9300000   -967800.000    298.150
 FUEL        AL                           0.0500000    330000.000    298.150
 FUEL        C8H16,1-octene               0.0200000    -83590.000    298.150

 O/F=    2.25000  %FUEL= 30.769231  R,EQ.RATIO= 4.051891  PHI,EQ.RATIO= 4.051891

 THERMODYNAMIC PROPERTIES

 P, BAR            20.000   22.500   25.000   27.500   30.000   32.500   35.000   37.500
 T, K             1794.68  1795.72  1796.74  1797.75  1798.75  1799.73  1800.70  1801.65
 RHO, KG/CU M    2.5872 0 2.9101 0 3.2330 0 3.5557 0 3.8784 0 4.2010 0 4.5235 0 4.8459 0
 H, KJ/KG          593.34   593.34   593.34   593.34   593.34   593.34   593.34   593.34
 U, KJ/KG         -179.69  -179.81  -179.94  -180.05  -180.17  -180.29  -180.40  -180.51
 G, KJ/KG        -19360.4 -19280.9 -19210.7 -19148.1 -19091.7 -19040.5 -18993.7 -18950.7
 S, KJ/(KG)(K)    11.1183  11.0675  11.0222  10.9812  10.9437  10.9093  10.8775  10.8478

 M, (1/n)          19.303   19.311   19.319   19.327   19.335   19.342   19.350   19.358
 MW, MOL WT        17.321   17.331   17.341   17.351   17.361   17.370   17.380   17.389
 (dLV/dLP)t      -1.00347 -1.00387 -1.00426 -1.00464 -1.00502 -1.00539 -1.00575 -1.00611
 (dLV/dLT)p        1.0234   1.0260   1.0286   1.0311   1.0336   1.0360   1.0384   1.0408
 Cp, KJ/(KG)(K)    2.1598   2.1681   2.1763   2.1844   2.1923   2.2001   2.2078   2.2154
 GAMMAs            1.2585   1.2582   1.2578   1.2575   1.2571   1.2568   1.2565   1.2561
 SON VEL,M/SEC      986.3    986.3    986.2    986.2    986.1    986.0    986.0    985.9

 MASS FRACTIONS

 CH3              0.00000  0.00001  0.00001  0.00001  0.00001  0.00001  0.00001  0.00001
 CH4              0.00218  0.00243  0.00269  0.00294  0.00318  0.00343  0.00367  0.00391
 *CO              0.41527  0.41512  0.41496  0.41480  0.41465  0.41450  0.41435  0.41420
 *CO2             0.00029  0.00032  0.00036  0.00039  0.00042  0.00045  0.00049  0.00052
 C2H2,acetylene   0.00009  0.00009  0.00009  0.00009  0.00009  0.00010  0.00010  0.00010
 CH3CN            0.00001  0.00001  0.00001  0.00001  0.00001  0.00002  0.00002  0.00002
 C2H4             0.00002  0.00002  0.00002  0.00003  0.00003  0.00003  0.00003  0.00004
 HCN              0.00334  0.00336  0.00337  0.00338  0.00340  0.00341  0.00342  0.00344
 HNC              0.00011  0.00011  0.00011  0.00011  0.00011  0.00011  0.00011  0.00011
 *H2              0.04233  0.04226  0.04218  0.04211  0.04203  0.04196  0.04189  0.04182
 H2O              0.00064  0.00071  0.00078  0.00086  0.00093  0.00100  0.00107  0.00114
 NH3              0.00007  0.00008  0.00009  0.00010  0.00011  0.00012  0.00013  0.00014
 *N2              0.43879  0.43877  0.43876  0.43874  0.43873  0.43871  0.43870  0.43868
 AL2O3(a)         0.02907  0.02907  0.02907  0.02907  0.02907  0.02907  0.02907  0.02907
 C(gr)            0.06777  0.06763  0.06749  0.06735  0.06721  0.06708  0.06694  0.06681

  * THERMODYNAMIC PROPERTIES FITTED TO 20000.K

 NOTE. WEIGHT FRACTION OF FUEL IN TOTAL FUELS AND OF OXIDANT IN TOTAL OXIDANTS









         THERMODYNAMIC EQUILIBRIUM COMBUSTION PROPERTIES AT ASSIGNED

                                   PRESSURES

 CASE = Boundless      

             REACTANT                    WT FRACTION      ENERGY      TEMP
                                          (SEE NOTE)     KJ/KG-MOL      K  
 OXIDANT     N2O(L),298.15K               1.0000000     65100.000    298.150
 FUEL        C32H66(a)                    0.9300000   -967800.000    298.150
 FUEL        AL                           0.0500000    330000.000    298.150
 FUEL        C8H16,1-octene               0.0200000    -83590.000    298.150

 O/F=    2.25000  %FUEL= 30.769231  R,EQ.RATIO= 4.051891  PHI,EQ.RATIO= 4.051891

 THERMODYNAMIC PROPERTIES

 P, BAR            40.000   42.500   45.000   47.500   50.000   55.000   60.000   65.000
 T, K             1802.60  1803.53  1804.45  1805.36  1806.26  1808.03  1809.77  1811.46
 RHO, KG/CU M    5.1682 0 5.4905 0 5.8127 0 6.1348 0 6.4568 0 7.1007 0 7.7443 0 8.3876 0
 H, KJ/KG          593.34   593.34   593.34   593.34   593.34   593.34   593.34   593.34
 U, KJ/KG         -180.62  -180.72  -180.83  -180.93  -181.03  -181.23  -181.42  -181.61
 G, KJ/KG        -18911.0 -18874.1 -18839.8 -18807.8 -18777.7 -18722.8 -18673.9 -18629.9
 S, KJ/(KG)(K)    10.8201  10.7941  10.7696  10.7464  10.7244  10.6835  10.6463  10.6120

 M, (1/n)          19.365   19.372   19.380   19.387   19.394   19.408   19.422   19.435
 MW, MOL WT        17.399   17.408   17.417   17.426   17.435   17.453   17.470   17.487
 (dLV/dLP)t      -1.00647 -1.00682 -1.00716 -1.00750 -1.00783 -1.00848 -1.00912 -1.00973
 (dLV/dLT)p        1.0431   1.0454   1.0477   1.0499   1.0521   1.0563   1.0605   1.0645
 Cp, KJ/(KG)(K)    2.2228   2.2301   2.2373   2.2444   2.2513   2.2649   2.2781   2.2909
 GAMMAs            1.2558   1.2555   1.2552   1.2549   1.2546   1.2540   1.2535   1.2529
 SON VEL,M/SEC      985.9    985.8    985.8    985.7    985.7    985.6    985.5    985.4

 MASS FRACTIONS

[...]
 N2O              0.00000  0.00000  0.00000  0.00000  0.00000  0.00000  0.00000  0.00001
 *O               0.00142  0.00096  0.00070  0.00059  0.00051  0.00046  0.00043  0.00040
 *OH              0.00359  0.00301  0.00259  0.00238  0.00223  0.00213  0.00204  0.00197
 *O2              0.25733  0.25755  0.25773  0.25779  0.25784  0.25787  0.25789  0.25791
 AL2O3(a)         0.00245  0.00245  0.00000  0.00000  0.00000  0.00000  0.00000  0.00000
 AL2O3(L)         0.00000  0.00000  0.00245  0.00245  0.00245  0.00245  0.00245  0.00245

  * THERMODYNAMIC PROPERTIES FITTED TO 20000.K

 NOTE. WEIGHT FRACTION OF FUEL IN TOTAL FUELS AND OF OXIDANT IN TOTAL OXIDANTS









         THERMODYNAMIC EQUILIBRIUM COMBUSTION PROPERTIES AT ASSIGNED

                                   PRESSURES

 CASE = Boundless      

             REACTANT                    WT FRACTION      ENERGY      TEMP
                                          (SEE NOTE)     KJ/KG-MOL      K  
 OXIDANT     N2O(L),298.15K               1.0000000     65100.000    298.150
 FUEL        C32H66(a)                    0.9300000   -967800.000    298.150
 FUEL        AL                           0.0500000    330000.000    298.150
 FUEL        C8H16,1-octene               0.0200000    -83590.000    298.150

 O/F=   37.50000  %FUEL=  2.597403  R,EQ.RATIO= 0.243113  PHI,EQ.RATIO= 0.243113

 THERMODYNAMIC PROPERTIES

 P, BAR            20.000   22.500   25.000   27.500   30.000   32.500   35.000   37.500
 T, K             2341.62  2342.32  2342.92  2343.45  2343.91  2344.33  2344.70  2345.05
 RHO, KG/CU M    3.0118 0 3.3874 0 3.7630 0 4.1386 0 4.5141 0 4.8895 0 5.2650 0 5.6404 0
 H, KJ/KG         1404.34  1404.34  1404.34  1404.34  1404.34  1404.34  1404.34  1404.34
 U, KJ/KG          740.28   740.12   739.98   739.86   739.75   739.66   739.57   739.49
 G, KJ/KG        -18551.2 -18478.9 -18414.0 -18355.1 -18301.2 -18251.5 -18205.4 -18162.4
 S, KJ/(KG)(K)     8.5221   8.4887   8.4588   8.4318   8.4071   8.3844   8.3634   8.3438

 M, (1/n)          29.319   29.320   29.322   29.323   29.324   29.325   29.326   29.327
 MW, MOL WT        29.298   29.300   29.301   29.302   29.303   29.304   29.305   29.306
 (dLV/dLP)t      -1.00051 -1.00049 -1.00048 -1.00046 -1.00045 -1.00044 -1.00043 -1.00042
 (dLV/dLT)p        1.0142   1.0136   1.0131   1.0126   1.0122   1.0119   1.0116   1.0113
 Cp, KJ/(KG)(K)    1.5577   1.5530   1.5490   1.5455   1.5424   1.5397   1.5372   1.5350
 GAMMAs            1.2296   1.2302   1.2306   1.2310   1.2314   1.2317   1.2320   1.2322
 SON VEL,M/SEC      903.6    903.9    904.2    904.4    904.6    904.8    905.0    905.1

 MASS FRACTIONS

 AL(OH)3          0.00001  0.00001  0.00001  0.00001  0.00001  0.00001  0.00001  0.00001
 *CO              0.00034  0.00032  0.00030  0.00029  0.00028  0.00027  0.00026  0.00025
 *CO2             0.07655  0.07658  0.07661  0.07663  0.07664  0.07666  0.07667  0.07669
 HO2              0.00002  0.00002  0.00002  0.00002  0.00002  0.00002  0.00002  0.00002
 H2O              0.03145  0.03148  0.03151  0.03153  0.03155  0.03157  0.03158  0.03160
 *NO              0.01672  0.01675  0.01677  0.01679  0.01680  0.01682  0.01683  0.01684
 NO2              0.00013  0.00014  0.00015  0.00015  0.00016  0.00017  0.00017  0.00018
 *N2              0.61210  0.61209  0.61207  0.61206  0.61205  0.61205  0.61204  0.61203
 N2O              0.00001  0.00001  0.00001  0.00001  0.00001  0.00001  0.00001  0.00001
 *O               0.00037  0.00035  0.00034  0.00032  0.00031  0.00030  0.00029  0.00028
 *OH              0.00192  0.00187  0.00182  0.00178  0.00175  0.00172  0.00169  0.00166
 *O2              0.25793  0.25794  0.25795  0.25796  0.25797  0.25797  0.25798  0.25798
 AL2O3(L)         0.00245  0.00245  0.00245  0.00245  0.00245  0.00245  0.00245  0.00245

  * THERMODYNAMIC PROPERTIES FITTED TO 20000.K

 NOTE. WEIGHT FRACTION OF FUEL IN TOTAL FUELS AND OF OXIDANT IN TOTAL OXIDANTS









         THERMODYNAMIC EQUILIBRIUM COMBUSTION PROPERTIES AT ASSIGNED

                                   PRESSURES

 CASE = Boundless      

             REACTANT                    WT FRACTION      ENERGY      TEMP
                                          (SEE NOTE)     KJ/KG-MOL      K  
 OXIDANT     N2O(L),298.15K               1.0000000     65100.000    298.150
 FUEL        C32H66(a)                    0.9300000   -967800.000    298.150
 FUEL        AL                           0.0500000    330000.000    298.150
 FUEL        C8H16,1-octene               0.0200000    -83590.000    298.150

 O/F=   37.50000  %FUEL=  2.597403  R,EQ.RATIO= 0.243113  PHI,EQ.RATIO= 0.243113

 THERMODYNAMIC PROPERTIES

 P, BAR            40.000   42.500   45.000   47.500   50.000   55.000   60.000   65.000
 T, K             2345.36  2345.64  2345.91  2346.15  2346.38  2346.80  2347.17  2347.49
 RHO, KG/CU M    6.0157 0 6.3911 0 6.7664 0 7.1417 0 7.5170 0 8.2675 0 9.0180 0 9.7684 0
 H, KJ/KG         1404.34  1404.34  1404.34  1404.34  1404.34  1404.34  1404.34  1404.34
 U, KJ/KG          739.42   739.35   739.29   739.24   739.19   739.09   739.01   738.93
 G, KJ/KG        -18122.0 -18084.1 -18048.3 -18014.4 -17982.2 -17922.2 -17867.3 -17816.8
 S, KJ/(KG)(K)     8.3256   8.3084   8.2922   8.2768   8.2623   8.2353   8.2106   8.1879

 M, (1/n)          29.327   29.328   29.329   29.329   29.330   29.331   29.332   29.333
 MW, MOL WT        29.307   29.308   29.308   29.309   29.309   29.310   29.311   29.312
 (dLV/dLP)t      -1.00041 -1.00041 -1.00040 -1.00039 -1.00039 -1.00038 -1.00037 -1.00036
 (dLV/dLT)p        1.0110   1.0108   1.0106   1.0104   1.0102   1.0098   1.0095   1.0092
 Cp, KJ/(KG)(K)    1.5329   1.5311   1.5293   1.5277   1.5262   1.5235   1.5212   1.5190
 GAMMAs            1.2325   1.2327   1.2329   1.2331   1.2333   1.2336   1.2339   1.2341
 SON VEL,M/SEC      905.3    905.4    905.5    905.6    905.7    905.9    906.1    906.2

 MASS FRACTIONS

 AL(OH)3          0.00001  0.00001  0.00001  0.00001  0.00001  0.00001  0.00001  0.00001
 *CO              0.00024  0.00024  0.00023  0.00022  0.00022  0.00021  0.00020  0.00019
 *CO2             0.07670  0.07671  0.07672  0.07673  0.07674  0.07675  0.07677  0.07678
 HNO2             0.00000  0.00000  0.00001  0.00001  0.00001  0.00001  0.00001  0.00001
 HO2              0.00002  0.00002  0.00002  0.00002  0.00002  0.00002  0.00002  0.00002
 H2O              0.03161  0.03162  0.03164  0.03165  0.03166  0.03168  0.03169  0.03171
 *NO              0.01685  0.01686  0.01687  0.01688  0.01689  0.01690  0.01691  0.01692
 NO2              0.00018  0.00019  0.00020  0.00020  0.00021  0.00022  0.00023  0.00024
 *N2              0.61202  0.61202  0.61201  0.61200  0.61200  0.61199  0.61198  0.61197
 N2O              0.00001  0.00001  0.00001  0.00001  0.00001  0.00001  0.00001  0.00001
 *O               0.00027  0.00026  0.00026  0.00025  0.00024  0.00023  0.00022  0.00021
 *OH              0.00164  0.00161  0.00159  0.00157  0.00155  0.00152  0.00149  0.00146
 *O2              0.25799  0.25799  0.25799  0.25800  0.25800  0.25801  0.25801  0.25801
 AL2O3(L)         0.00245  0.00245  0.00245  0.00245  0.00245  0.00245  0.00245  0.00245

  * THERMODYNAMIC PROPERTIES FITTED TO 20000.K

 NOTE. WEIGHT FRACTION OF FUEL IN TOTAL FUELS AND OF OXIDANT IN TOTAL OXIDANTS









         THERMODYNAMIC EQUILIBRIUM COMBUSTION PROPERTIES AT ASSIGNED

                                   PRESSURES

 CASE = Boundless      

             REACTANT                    WT FRACTION      ENERGY      TEMP
                                          (SEE NOTE)     KJ/KG-MOL      K  
 OXIDANT     N2O(L),298.15K               1.0000000     65100.000    298.150
 FUEL        C32H66(a)                    0.9300000   -967800.000    298.150
 FUEL        AL                           0.0500000    330000.000    298.150
 FUEL        C8H16,1-octene               0.0200000    -83590.000    298.150

 O/F=   37.50000  %FUEL=  2.597403  R,EQ.RATIO= 0.243113  PHI,EQ.RATIO= 0.243113

 THERMODYNAMIC PROPERTIES

 P, BAR            70.000
 T, K             2347.79
 RHO, KG/CU M    1.0519 1
 H, KJ/KG         1404.34
 U, KJ/KG          738.87
 G, KJ/KG        -17769.9
 S, KJ/(KG)(K)     8.1669

 M, (1/n)          29.333
 MW, MOL WT        29.313
 (dLV/dLP)t      -1.00036
 (dLV/dLT)p        1.0090
 Cp, KJ/(KG)(K)    1.5171
 GAMMAs            1.2343
 SON VEL,M/SEC      906.3

 MASS FRACTIONS

 AL(OH)3          0.00001
 *CO              0.00019
 *CO2             0.07679
 HNO2             0.00001
 HO2              0.00002
 H2O              0.03172
 *NO              0.01693
 NO2              0.00025
 *N2              0.61196
 N2O              0.00001
 *O               0.00021
 *OH              0.00144
 *O2              0.25801
 AL2O3(L)         0.00245

  * THERMODYNAMIC PROPERTIES FITTED TO 20000.K

 NOTE. WEIGHT FRACTION OF FUEL IN TOTAL FUELS AND OF OXIDANT IN TOTAL OXIDANTS









         THERMODYNAMIC EQUILIBRIUM COMBUSTION PROPERTIES AT ASSIGNED

                                   PRESSURES

 CASE = Boundless      

             REACTANT                    WT FRACTION      ENERGY      TEMP
                                          (SEE NOTE)     KJ/KG-MOL      K  
 OXIDANT     N2O(L),298.15K               1.0000000     65100.000    298.150
 FUEL        C32H66(a)                    0.9300000   -967800.000    298.150
 FUEL        AL                           0.0500000    330000.000    298.150
 FUEL        C8H16,1-octene               0.0200000    -83590.000    298.150

 O/F=   50.00000  %FUEL=  1.960784  R,EQ.RATIO= 0.182335  PHI,EQ.RATIO= 0.182335

 THERMODYNAMIC PROPERTIES

 P, BAR            1.0000   2.5000   5.0000   7.5000   10.000   12.500   15.000   17.500
 T, K             2168.85  2174.67  2178.03  2179.65  2180.67  2181.39  2181.95  2182.39
 RHO, KG/CU M    1.6252-1 4.0539-1 8.0973-1 1.2138 0 1.6178 0 2.0217 0 2.4255 0 2.8293 0
 H, KJ/KG         1422.67  1422.67  1422.67  1422.67  1422.67  1422.67  1422.67  1422.67
 U, KJ/KG          807.36   805.97   805.18   804.79   804.55   804.38   804.25   804.15
 G, KJ/KG        -18597.0 -18085.5 -17687.5 -17451.2 -17282.2 -17150.5 -17042.4 -16950.8
 S, KJ/(KG)(K)     9.2305   8.9706   8.7741   8.6591   8.5776   8.5144   8.4627   8.4190

 M, (1/n)          29.307   29.320   29.327   29.331   29.333   29.335   29.336   29.337
 MW, MOL WT        29.291   29.304   29.311   29.315   29.317   29.319   29.320   29.321
 (dLV/dLP)t      -1.00061 -1.00044 -1.00034 -1.00030 -1.00027 -1.00025 -1.00024 -1.00023
 (dLV/dLT)p        1.0187   1.0133   1.0103   1.0089   1.0080   1.0074   1.0069   1.0066
 Cp, KJ/(KG)(K)    1.5607   1.5154   1.4901   1.4781   1.4706   1.4654   1.4614   1.4582
 GAMMAs            1.2316   1.2372   1.2405   1.2421   1.2431   1.2439   1.2444   1.2448
 SON VEL,M/SEC      870.5    873.5    875.2    876.1    876.6    877.0    877.2    877.5

 MASS FRACTIONS

 *CO              0.00035  0.00023  0.00017  0.00014  0.00012  0.00011  0.00010  0.00009
 *CO2             0.05764  0.05783  0.05793  0.05797  0.05800  0.05802  0.05803  0.05804
 HO2              0.00000  0.00001  0.00001  0.00001  0.00001  0.00001  0.00001  0.00001
 H2O              0.02351  0.02371  0.02383  0.02390  0.02394  0.02397  0.02400  0.02402
 *NO              0.01213  0.01230  0.01239  0.01244  0.01247  0.01249  0.01251  0.01252
 NO2              0.00003  0.00004  0.00006  0.00008  0.00009  0.00010  0.00011  0.00012
 *N2              0.61833  0.61825  0.61820  0.61817  0.61815  0.61814  0.61813  0.61812
 *O               0.00062  0.00040  0.00029  0.00024  0.00021  0.00019  0.00017  0.00016
 *OH              0.00186  0.00152  0.00130  0.00118  0.00111  0.00105  0.00101  0.00097
 *O2              0.28367  0.28386  0.28396  0.28401  0.28404  0.28406  0.28407  0.28408
 AL2O3(a)         0.00185  0.00185  0.00185  0.00185  0.00185  0.00185  0.00185  0.00185

  * THERMODYNAMIC PROPERTIES FITTED TO 20000.K

 NOTE. WEIGHT FRACTION OF FUEL IN TOTAL FUELS AND OF OXIDANT IN TOTAL OXIDANTS









         THERMODYNAMIC EQUILIBRIUM COMBUSTION PROPERTIES AT ASSIGNED

                                   PRESSURES

 CASE = Boundless      

             REACTANT                    WT FRACTION      ENERGY      TEMP
                                          (SEE NOTE)     KJ/KG-MOL      K  
 OXIDANT     N2O(L),298.15K               1.0000000     65100.000    298.150
 FUEL        C32H66(a)                    0.9300000   -967800.000    298.150
 FUEL        AL                           0.0500000    330000.000    298.150
 FUEL        C8H16,1-octene               0.0200000    -83590.000    298.150

 O/F=   50.00000  %FUEL=  1.960784  R,EQ.RATIO= 0.182335  PHI,EQ.RATIO= 0.182335

 THERMODYNAMIC PROPERTIES

 P, BAR            20.000   22.500   25.000   27.500   30.000   32.500   35.000   37.500
 T, K             2182.75  2183.06  2183.32  2183.55  2183.76  2183.94  2184.10  2184.25
 RHO, KG/CU M    3.2331 0 3.6368 0 4.0405 0 4.4441 0 4.8478 0 5.2514 0 5.6550 0 6.0586 0
 H, KJ/KG         1422.67  1422.67  1422.67  1422.67  1422.67  1422.67  1422.67  1422.67
 U, KJ/KG          804.06   803.99   803.93   803.88   803.83   803.79   803.75   803.72
 G, KJ/KG        -16871.3 -16801.0 -16738.0 -16680.9 -16628.8 -16580.7 -16536.2 -16494.7
 S, KJ/(KG)(K)     8.3811   8.3478   8.3179   8.2909   8.2662   8.2436   8.2226   8.2030

 M, (1/n)          29.338   29.338   29.339   29.340   29.340   29.341   29.341   29.341
 MW, MOL WT        29.322   29.323   29.323   29.324   29.325   29.325   29.325   29.326
 (dLV/dLP)t      -1.00022 -1.00021 -1.00021 -1.00020 -1.00020 -1.00020 -1.00019 -1.00019
 (dLV/dLT)p        1.0063   1.0060   1.0058   1.0056   1.0054   1.0052   1.0051   1.0050
 Cp, KJ/(KG)(K)    1.4556   1.4534   1.4516   1.4499   1.4485   1.4472   1.4460   1.4450
 GAMMAs            1.2452   1.2455   1.2458   1.2460   1.2462   1.2464   1.2465   1.2467
 SON VEL,M/SEC      877.7    877.8    878.0    878.1    878.2    878.3    878.4    878.4

 MASS FRACTIONS

 *CO              0.00009  0.00008  0.00008  0.00007  0.00007  0.00007  0.00007  0.00006
 *CO2             0.05805  0.05806  0.05807  0.05807  0.05808  0.05808  0.05809  0.05809
 HO2              0.00001  0.00001  0.00001  0.00001  0.00001  0.00001  0.00001  0.00001
 H2O              0.02403  0.02405  0.02406  0.02407  0.02408  0.02409  0.02410  0.02411
 *NO              0.01253  0.01254  0.01255  0.01256  0.01256  0.01257  0.01257  0.01258
 NO2              0.00013  0.00013  0.00014  0.00015  0.00015  0.00016  0.00017  0.00017
 *N2              0.61811  0.61810  0.61810  0.61809  0.61809  0.61808  0.61808  0.61808
 N2O              0.00000  0.00000  0.00000  0.00000  0.00001  0.00001  0.00001  0.00001
 *O               0.00015  0.00014  0.00014  0.00013  0.00012  0.00012  0.00011  0.00011
 *OH              0.00094  0.00092  0.00089  0.00087  0.00085  0.00084  0.00082  0.00081
 *O2              0.28409  0.28410  0.28411  0.28411  0.28411  0.28412  0.28412  0.28412
 AL2O3(a)         0.00185  0.00185  0.00185  0.00185  0.00185  0.00185  0.00185  0.00185

  * THERMODYNAMIC PROPERTIES FITTED TO 20000.K

 NOTE. WEIGHT FRACTION OF FUEL IN TOTAL FUELS AND OF OXIDANT IN TOTAL OXIDANTS









         THERMODYNAMIC EQUILIBRIUM COMBUSTION PROPERTIES AT ASSIGNED

                                   PRESSURES

 CASE = Boundless      

             REACTANT                    WT FRACTION      ENERGY      TEMP
                                          (SEE NOTE)     KJ/KG-MOL      K  
 OXIDANT     N2O(L),298.15K               1.0000000     65100.000    298.150
 FUEL        C32H66(a)                    0.9300000   -967800.000    298.150
 FUEL        AL                           0.0500000    330000.000    298.150
 FUEL        C8H16,1-octene               0.0200000    -83590.000    298.150

 O/F=   50.00000  %FUEL=  1.960784  R,EQ.RATIO= 0.182335  PHI,EQ.RATIO= 0.182335

 THERMODYNAMIC PROPERTIES

 P, BAR            40.000   42.500   45.000   47.500   50.000   55.000   60.000   65.000
 T, K             2184.39  2184.51  2184.63  2184.73  2184.83  2185.02  2185.17  2185.32
 RHO, KG/CU M    6.4622 0 6.8658 0 7.2693 0 7.6729 0 8.0764 0 8.8835 0 9.6905 0 1.0497 1
 H, KJ/KG         1422.67  1422.67  1422.67  1422.67  1422.67  1422.67  1422.67  1422.67
 U, KJ/KG          803.68   803.66   803.63   803.60   803.58   803.54   803.51   803.47
 G, KJ/KG        -16455.9 -16419.4 -16385.0 -16352.4 -16321.4 -16263.9 -16211.3 -16162.9
 S, KJ/(KG)(K)     8.1847   8.1675   8.1513   8.1360   8.1215   8.0945   8.0698   8.0471

 M, (1/n)          29.342   29.342   29.342   29.343   29.343   29.343   29.344   29.344
 MW, MOL WT        29.326   29.326   29.327   29.327   29.327   29.328   29.328   29.329
 (dLV/dLP)t      -1.00019 -1.00019 -1.00018 -1.00018 -1.00018 -1.00018 -1.00017 -1.00017
 (dLV/dLT)p        1.0049   1.0048   1.0047   1.0046   1.0045   1.0043   1.0042   1.0041
 Cp, KJ/(KG)(K)    1.4440   1.4431   1.4423   1.4416   1.4409   1.4396   1.4385   1.4375
 GAMMAs            1.2468   1.2469   1.2471   1.2472   1.2473   1.2474   1.2476   1.2477
 SON VEL,M/SEC      878.5    878.6    878.6    878.7    878.7    878.8    878.9    879.0

 MASS FRACTIONS

 *CO              0.00006  0.00006  0.00006  0.00006  0.00006  0.00005  0.00005  0.00005
 *CO2             0.05809  0.05809  0.05810  0.05810  0.05810  0.05811  0.05811  0.05811
 HNO2             0.00000  0.00000  0.00000  0.00000  0.00000  0.00000  0.00000  0.00001
 HO2              0.00001  0.00001  0.00001  0.00001  0.00001  0.00001  0.00001  0.00001
 H2O              0.02411  0.02412  0.02412  0.02413  0.02413  0.02414  0.02415  0.02416
 *NO              0.01258  0.01258  0.01259  0.01259  0.01259  0.01260  0.01260  0.01261
 NO2              0.00018  0.00018  0.00019  0.00019  0.00020  0.00021  0.00022  0.00023
 *N2              0.61807  0.61807  0.61806  0.61806  0.61806  0.61805  0.61805  0.61804
 N2O              0.00001  0.00001  0.00001  0.00001  0.00001  0.00001  0.00001  0.00001
 *O               0.00011  0.00010  0.00010  0.00010  0.00010  0.00009  0.00009  0.00008
 *OH              0.00080  0.00079  0.00078  0.00077  0.00076  0.00074  0.00072  0.00071
 *O2              0.28412  0.28412  0.28412  0.28412  0.28413  0.28413  0.28413  0.28413
 AL2O3(a)         0.00185  0.00185  0.00185  0.00185  0.00185  0.00185  0.00185  0.00185

  * THERMODYNAMIC PROPERTIES FITTED TO 20000.K

 NOTE. WEIGHT FRACTION OF FUEL IN TOTAL FUELS AND OF OXIDANT IN TOTAL OXIDANTS









         THERMODYNAMIC EQUILIBRIUM COMBUSTION PROPERTIES AT ASSIGNED

                                   PRESSURES

 CASE = Boundless      

             REACTANT                    WT FRACTION      ENERGY      TEMP
                                          (SEE NOTE)     KJ/KG-MOL      K  
 OXIDANT     N2O(L),298.15K               1.0000000     65100.000    298.150
 FUEL        C32H66(a)                    0.9300000   -967800.000    298.150
 FUEL        AL                           0.0500000    330000.000    298.150
 FUEL        C8H16,1-octene               0.0200000    -83590.000    298.150

 O/F=   50.00000  %FUEL=  1.960784  R,EQ.RATIO= 0.182335  PHI,EQ.RATIO= 0.182335

 THERMODYNAMIC PROPERTIES

 P, BAR            70.000
 T, K             2185.45
 RHO, KG/CU M    1.1304 1
 H, KJ/KG         1422.67
 U, KJ/KG          803.44
 G, KJ/KG        -16118.0
 S, KJ/(KG)(K)     8.0261

 M, (1/n)          29.345
 MW, MOL WT        29.329
 (dLV/dLP)t      -1.00017
 (dLV/dLT)p        1.0040
 Cp, KJ/(KG)(K)    1.4366
 GAMMAs            1.2479
 SON VEL,M/SEC      879.0

 MASS FRACTIONS

 *CO              0.00005
 *CO2             0.05812
 HNO2             0.00001
 HO2              0.00001
 H2O              0.02417
 *NO              0.01261
 NO2              0.00024
 *N2              0.61804
 N2O              0.00001
 *O               0.00008
 *OH              0.00070
 *O2              0.28412
 AL2O3(a)         0.00185

  * THERMODYNAMIC PROPERTIES FITTED TO 20000.K

 NOTE. WEIGHT FRACTION OF FUEL IN TOTAL FUELS AND OF OXIDANT IN TOTAL OXIDANTS



