
 *******************************************************************************

         NASA-GLENN CHEMICAL EQUILIBRIUM PROGRAM CEA2, MAY 21, 2004
                   BY  BONNIE MCBRIDE AND SANFORD GORDON
      REFS: NASA RP-1311, PART I, 1994 AND NASA RP-1311, PART II, 1996

 *******************************************************************************



  
 !     USER MANUAL FOR CEA CAN BE FOUND HERE:
 !          https://www.grc.nasa.gov/www/CEAWeb/RP-1311-P2.pdf
 !
 !  MULESIM DATA:
 !     (a)  Combustion or assigned-enthalpy-and-pressure problem (hp).
 !     (b)  Fuels are 'C32H66(a)' or paraffin at 298.15 K. The oxidant is
 !          'N2O(L),298.15K' at 298.15 K. Feel free to add any additional fuels.
 !     (c)  Oxidant-to-fuel weight ratios from 0.5 to 30 are defined.  Weight
 !          fractions are fractions of fuel relative to total fuel and fractions
 !          of oxidant relative to total oxidant. Make sure to update the wtfrac
 !          value if you add more fuels.
 !     (d)  Assigned pressures range from 1-70 bar in steps of 5 (p(bar)=1,...).
 !     (e)  Mixture properties are to be printed in SI units (siunits).
 !     (f)  Reactant fractions are to be expressed in terms of mass (massf)
 !     (g)  The short output file format is used (short)
 !     (h)  I don't know why but this program is unbelievably finicky, be warned
  
 reac
        oxid N2O   wtfrac=1   t(k)=298.15
        fuel C32H66(a)   wtfrac=1   t(k)=298.15
 prob   case=MuleSimData1   hp   p(bar)=1,2.5,5,7.5,10,12.5,15,17.5,20,22.5,25,27
 .5,30,32.5,35,37.5,40,42.5,45,47.5,50,55,60,65,70
        o/f=0.5,0.75,1,1.25,1.5,2,2.25,2.5,2.75,3,3.5,4,4.5,5,5.5,6,6.5,7,7.5,8,8
 .5,9,9.5,10,10.5,11,12,13,14,15,17.5,20,25,37.5,50
 output siunits   massf   short
  
 end




         THERMODYNAMIC EQUILIBRIUM COMBUSTION PROPERTIES AT ASSIGNED

                                   PRESSURES

 CASE = MuleSimData1   

             REACTANT                    WT FRACTION      ENERGY      TEMP
                                          (SEE NOTE)     KJ/KG-MOL      K  
 OXIDANT     N2O                          1.0000000     81600.000    298.150
 FUEL        C32H66(a)                    1.0000000   -967800.000    298.150

 O/F=    0.50000  %FUEL= 66.666667  R,EQ.RATIO=18.937944  PHI,EQ.RATIO=18.937944

 THERMODYNAMIC PROPERTIES

 P, BAR            1.0000   2.5000   5.0000   7.5000   10.000   12.500   15.000   17.500
 T, K              868.33   911.42   945.92   966.77   981.84   993.66  1003.40  1011.68
 RHO, KG/CU M    2.7181-1 6.6502-1 1.3100 0 1.9486 0 2.5835 0 3.2159 0 3.8463 0 4.4751 0
 H, KJ/KG         -813.02  -813.02  -813.02  -813.02  -813.02  -813.02  -813.02  -813.02
 U, KJ/KG        -1180.93 -1188.95 -1194.71 -1197.91 -1200.09 -1201.72 -1203.01 -1204.07
 G, KJ/KG        -10480.1 -10610.7 -10714.0 -10775.2 -10818.5 -10851.9 -10879.0 -10901.7
 S, KJ/(KG)(K)    11.1330  10.7499  10.4671  10.3046  10.1906  10.1030  10.0319   9.9721

 M, (1/n)          19.624   20.158   20.605   20.885   21.091   21.255   21.392   21.510
 MW, MOL WT        11.353   11.721   12.029   12.221   12.363   12.475   12.569   12.649
 (dLV/dLP)t      -1.09447 -1.09799 -1.09876 -1.09839 -1.09776 -1.09705 -1.09633 -1.09562
 (dLV/dLT)p        2.2719   2.2617   2.2299   2.2018   2.1779   2.1572   2.1389   2.1225
 Cp, KJ/(KG)(K)   10.3088   9.7526   9.2312   8.8958   8.6475   8.4504   8.2869   8.1474
 GAMMAs            1.1334   1.1342   1.1345   1.1345   1.1344   1.1342   1.1341   1.1339
 SON VEL,M/SEC      645.7    653.0    658.1    660.8    662.6    664.0    665.0    665.9

 MASS FRACTIONS

 CH4              0.12502  0.14715  0.16463  0.17506  0.18253  0.18834  0.19309  0.19711
 *CO              0.04709  0.04959  0.05108  0.05173  0.05207  0.05225  0.05234  0.05238
 *CO2             0.03147  0.02912  0.02771  0.02702  0.02660  0.02631  0.02610  0.02594
 C2H6             0.00000  0.00001  0.00001  0.00002  0.00003  0.00003  0.00004  0.00005
 *H2              0.05791  0.05229  0.04785  0.04519  0.04329  0.04180  0.04058  0.03955
 H2O              0.08039  0.08070  0.08090  0.08105  0.08118  0.08129  0.08141  0.08151
 NH3              0.00022  0.00035  0.00048  0.00057  0.00065  0.00072  0.00077  0.00083
 *N2              0.21198  0.21188  0.21177  0.21169  0.21163  0.21157  0.21152  0.21148
 C(gr)            0.44592  0.42892  0.41557  0.40766  0.40204  0.39768  0.39414  0.39115

  * THERMODYNAMIC PROPERTIES FITTED TO 20000.K

 NOTE. WEIGHT FRACTION OF FUEL IN TOTAL FUELS AND OF OXIDANT IN TOTAL OXIDANTS









         THERMODYNAMIC EQUILIBRIUM COMBUSTION PROPERTIES AT ASSIGNED

                                   PRESSURES

 CASE = MuleSimData1   

             REACTANT                    WT FRACTION      ENERGY      TEMP
                                          (SEE NOTE)     KJ/KG-MOL      K  
 OXIDANT     N2O                          1.0000000     81600.000    298.150
 FUEL        C32H66(a)                    1.0000000   -967800.000    298.150

 O/F=    0.50000  %FUEL= 66.666667  R,EQ.RATIO=18.937944  PHI,EQ.RATIO=18.937944

 THERMODYNAMIC PROPERTIES

 P, BAR            20.000   22.500   25.000   27.500   30.000   32.500   35.000   37.500
 T, K             1018.89  1025.27  1031.00  1036.19  1040.93  1045.30  1049.36  1053.13
 RHO, KG/CU M    5.1027 0 5.7292 0 6.3548 0 6.9797 0 7.6038 0 8.2273 0 8.8503 0 9.4728 0
 H, KJ/KG         -813.02  -813.02  -813.02  -813.02  -813.02  -813.02  -813.02  -813.02
 U, KJ/KG        -1204.97 -1205.75 -1206.42 -1207.02 -1207.56 -1208.05 -1208.49 -1208.89
 G, KJ/KG        -10921.1 -10938.0 -10953.0 -10966.4 -10978.6 -10989.6 -10999.7 -11009.0
 S, KJ/(KG)(K)     9.9206   9.8754   9.8351   9.7988   9.7658   9.7355   9.7075   9.6816

 M, (1/n)          21.614   21.706   21.790   21.866   21.937   22.002   22.062   22.119
 MW, MOL WT        12.720   12.782   12.839   12.890   12.938   12.981   13.022   13.060
 (dLV/dLP)t      -1.09494 -1.09428 -1.09365 -1.09304 -1.09246 -1.09190 -1.09136 -1.09084
 (dLV/dLT)p        2.1076   2.0940   2.0815   2.0698   2.0590   2.0488   2.0392   2.0302
 Cp, KJ/(KG)(K)    8.0259   7.9182   7.8218   7.7344   7.6547   7.5813   7.5134   7.4503
 GAMMAs            1.1337   1.1336   1.1334   1.1333   1.1331   1.1329   1.1328   1.1326
 SON VEL,M/SEC      666.6    667.2    667.7    668.2    668.6    669.0    669.3    669.6

 MASS FRACTIONS

 CH4              0.20059  0.20366  0.20639  0.20887  0.21112  0.21318  0.21509  0.21687
 *CO              0.05239  0.05237  0.05233  0.05228  0.05222  0.05215  0.05207  0.05200
 *CO2             0.02581  0.02571  0.02563  0.02556  0.02550  0.02546  0.02542  0.02538
 C2H4             0.00000  0.00000  0.00000  0.00000  0.00000  0.00000  0.00000  0.00001
 C2H6             0.00005  0.00006  0.00006  0.00007  0.00007  0.00008  0.00008  0.00009
 *H2              0.03865  0.03786  0.03716  0.03652  0.03593  0.03540  0.03490  0.03444
 H2O              0.08161  0.08171  0.08180  0.08189  0.08198  0.08206  0.08214  0.08222
 NH3              0.00088  0.00092  0.00097  0.00100  0.00104  0.00108  0.00111  0.00114
 *N2              0.21144  0.21140  0.21137  0.21133  0.21130  0.21127  0.21124  0.21122
 C(gr)            0.38857  0.38631  0.38429  0.38248  0.38083  0.37932  0.37793  0.37664

  * THERMODYNAMIC PROPERTIES FITTED TO 20000.K

 NOTE. WEIGHT FRACTION OF FUEL IN TOTAL FUELS AND OF OXIDANT IN TOTAL OXIDANTS









         THERMODYNAMIC EQUILIBRIUM COMBUSTION PROPERTIES AT ASSIGNED

                                   PRESSURES

 CASE = MuleSimData1   

             REACTANT                    WT FRACTION      ENERGY      TEMP
                                          (SEE NOTE)     KJ/KG-MOL      K  
 OXIDANT     N2O                          1.0000000     81600.000    298.150
 FUEL        C32H66(a)                    1.0000000   -967800.000    298.150

 O/F=    0.50000  %FUEL= 66.666667  R,EQ.RATIO=18.937944  PHI,EQ.RATIO=18.937944

 THERMODYNAMIC PROPERTIES

 P, BAR            40.000   42.500   45.000   47.500   50.000   55.000   60.000   65.000
 T, K             1056.67  1059.99  1063.12  1066.08  1068.89  1074.11  1078.88  1083.26
 RHO, KG/CU M    1.0095 1 1.0716 1 1.1338 1 1.1959 1 1.2579 1 1.3819 1 1.5059 1 1.6297 1
 H, KJ/KG         -813.02  -813.02  -813.02  -813.02  -813.02  -813.02  -813.02  -813.02
 U, KJ/KG        -1209.26 -1209.61 -1209.93 -1210.23 -1210.50 -1211.01 -1211.46 -1211.87
 G, KJ/KG        -11017.6 -11025.6 -11033.1 -11040.0 -11046.6 -11058.6 -11069.3 -11079.0
 S, KJ/(KG)(K)     9.6573   9.6346   9.6133   9.5931   9.5740   9.5386   9.5065   9.4769

 M, (1/n)          22.172   22.223   22.270   22.316   22.359   22.440   22.514   22.582
 MW, MOL WT        13.096   13.130   13.161   13.192   13.220   13.274   13.323   13.368
 (dLV/dLP)t      -1.09034 -1.08986 -1.08939 -1.08894 -1.08851 -1.08767 -1.08689 -1.08614
 (dLV/dLT)p        2.0216   2.0134   2.0056   1.9982   1.9911   1.9777   1.9653   1.9538
 Cp, KJ/(KG)(K)    7.3914   7.3361   7.2840   7.2349   7.1884   7.1022   7.0239   6.9522
 GAMMAs            1.1325   1.1324   1.1322   1.1321   1.1320   1.1317   1.1315   1.1313
 SON VEL,M/SEC      669.9    670.1    670.4    670.6    670.8    671.1    671.4    671.7

 MASS FRACTIONS

 CH4              0.21852  0.22007  0.22153  0.22290  0.22421  0.22662  0.22880  0.23081
 *CO              0.05192  0.05183  0.05175  0.05166  0.05157  0.05140  0.05122  0.05105
 *CO2             0.02535  0.02533  0.02531  0.02529  0.02528  0.02526  0.02524  0.02523
 C2H4             0.00001  0.00001  0.00001  0.00001  0.00001  0.00001  0.00001  0.00001
 C2H6             0.00009  0.00010  0.00010  0.00011  0.00011  0.00012  0.00013  0.00014
 HCN              0.00000  0.00000  0.00001  0.00001  0.00001  0.00001  0.00001  0.00001
 *H2              0.03401  0.03361  0.03323  0.03287  0.03253  0.03189  0.03132  0.03079
 H2O              0.08229  0.08236  0.08244  0.08250  0.08257  0.08270  0.08283  0.08295
 NH3              0.00118  0.00121  0.00123  0.00126  0.00129  0.00134  0.00139  0.00143
 *N2              0.21119  0.21117  0.21114  0.21112  0.21110  0.21105  0.21101  0.21098
 C(gr)            0.37544  0.37431  0.37326  0.37227  0.37133  0.36960  0.36803  0.36660

  * THERMODYNAMIC PROPERTIES FITTED TO 20000.K

 NOTE. WEIGHT FRACTION OF FUEL IN TOTAL FUELS AND OF OXIDANT IN TOTAL OXIDANTS









         THERMODYNAMIC EQUILIBRIUM COMBUSTION PROPERTIES AT ASSIGNED

                                   PRESSURES

 CASE = MuleSimData1   

             REACTANT                    WT FRACTION      ENERGY      TEMP
                                          (SEE NOTE)     KJ/KG-MOL      K  
 OXIDANT     N2O                          1.0000000     81600.000    298.150
 FUEL        C32H66(a)                    1.0000000   -967800.000    298.150

 O/F=    0.50000  %FUEL= 66.666667  R,EQ.RATIO=18.937944  PHI,EQ.RATIO=18.937944

 THERMODYNAMIC PROPERTIES

 P, BAR            70.000
 T, K             1087.32
 RHO, KG/CU M    1.7534 1
 H, KJ/KG         -813.02
 U, KJ/KG        -1212.24
 G, KJ/KG        -11087.8
 S, KJ/(KG)(K)     9.4497

 M, (1/n)          22.646
 MW, MOL WT        13.410
 (dLV/dLP)t      -1.08544
 (dLV/dLT)p        1.9430
 Cp, KJ/(KG)(K)    6.8861
 GAMMAs            1.1310
 SON VEL,M/SEC      672.0

 MASS FRACTIONS

 CH4              0.23265
 *CO              0.05088
 *CO2             0.02523
 C2H4             0.00001
 C2H6             0.00015
 HCN              0.00001
 *H2              0.03031
 H2O              0.08306
 NH3              0.00148
 *N2              0.21094
 C(gr)            0.36528

  * THERMODYNAMIC PROPERTIES FITTED TO 20000.K

 NOTE. WEIGHT FRACTION OF FUEL IN TOTAL FUELS AND OF OXIDANT IN TOTAL OXIDANTS









         THERMODYNAMIC EQUILIBRIUM COMBUSTION PROPERTIES AT ASSIGNED

                                   PRESSURES

 CASE = MuleSimData1   

             REACTANT                    WT FRACTION      ENERGY      TEMP
                                          (SEE NOTE)     KJ/KG-MOL      K  
 OXIDANT     N2O                          1.0000000     81600.000    298.150
 FUEL        C32H66(a)                    1.0000000   -967800.000    298.150

 O/F=    0.75000  %FUEL= 57.142857  R,EQ.RATIO=12.625296  PHI,EQ.RATIO=12.625296

 THERMODYNAMIC PROPERTIES

 P, BAR            1.0000   2.5000   5.0000   7.5000   10.000   12.500   15.000   17.500
 T, K              944.56   989.25  1026.01  1048.67  1065.24  1078.38  1089.28  1098.62
 RHO, KG/CU M    2.3586-1 5.7607-1 1.1327 0 1.6828 0 2.2290 0 2.7723 0 3.3136 0 3.8531 0
 H, KJ/KG         -432.02  -432.02  -432.02  -432.02  -432.02  -432.02  -432.02  -432.02
 U, KJ/KG         -855.99  -865.99  -873.44  -877.70  -880.65  -882.90  -884.70  -886.20
 G, KJ/KG        -11451.4 -11570.5 -11675.4 -11741.8 -11790.9 -11830.0 -11862.4 -11890.2
 S, KJ/(KG)(K)    11.6662  11.2595  10.9583  10.7849  10.6632  10.5696  10.4936  10.4297

 M, (1/n)          18.524   18.953   19.326   19.564   19.742   19.886   20.007   20.112
 MW, MOL WT        11.723   12.027   12.299   12.475   12.608   12.715   12.806   12.884
 (dLV/dLP)t      -1.07545 -1.08452 -1.09025 -1.09297 -1.09456 -1.09558 -1.09627 -1.09675
 (dLV/dLT)p        2.0627   2.1161   2.1380   2.1421   2.1408   2.1373   2.1329   2.1280
 Cp, KJ/(KG)(K)    9.7175   9.4594   9.1600   8.9448   8.7756   8.6358   8.5164   8.4121
 GAMMAs            1.1377   1.1405   1.1421   1.1429   1.1434   1.1436   1.1438   1.1439
 SON VEL,M/SEC      694.5    703.5    710.0    713.7    716.2    718.1    719.6    720.8

 MASS FRACTIONS

 CH4              0.05457  0.07183  0.08653  0.09570  0.10243  0.10776  0.11219  0.11598
 *CO              0.13914  0.13697  0.13547  0.13456  0.13386  0.13327  0.13275  0.13228
 *CO2             0.03814  0.03535  0.03356  0.03266  0.03210  0.03172  0.03144  0.03122
 C2H6             0.00000  0.00000  0.00001  0.00001  0.00001  0.00002  0.00002  0.00003
 HCN              0.00000  0.00000  0.00000  0.00001  0.00001  0.00001  0.00001  0.00001
 *H2              0.06445  0.05968  0.05569  0.05323  0.05142  0.04999  0.04880  0.04779
 H2O              0.05471  0.05839  0.06082  0.06214  0.06305  0.06374  0.06430  0.06478
 NH3              0.00015  0.00025  0.00037  0.00045  0.00053  0.00059  0.00064  0.00069
 *N2              0.27265  0.27257  0.27247  0.27240  0.27234  0.27229  0.27224  0.27220
 C(gr)            0.37618  0.36495  0.35508  0.34884  0.34425  0.34061  0.33759  0.33501

  * THERMODYNAMIC PROPERTIES FITTED TO 20000.K

 NOTE. WEIGHT FRACTION OF FUEL IN TOTAL FUELS AND OF OXIDANT IN TOTAL OXIDANTS









         THERMODYNAMIC EQUILIBRIUM COMBUSTION PROPERTIES AT ASSIGNED

                                   PRESSURES

 CASE = MuleSimData1   

             REACTANT                    WT FRACTION      ENERGY      TEMP
                                          (SEE NOTE)     KJ/KG-MOL      K  
 OXIDANT     N2O                          1.0000000     81600.000    298.150
 FUEL        C32H66(a)                    1.0000000   -967800.000    298.150

 O/F=    0.75000  %FUEL= 57.142857  R,EQ.RATIO=12.625296  PHI,EQ.RATIO=12.625296

 THERMODYNAMIC PROPERTIES

 P, BAR            20.000   22.500   25.000   27.500   30.000   32.500   35.000   37.500
 T, K             1106.79  1114.06  1120.61  1126.57  1132.05  1137.11  1141.82  1146.22
 RHO, KG/CU M    4.3912 0 4.9281 0 5.4639 0 5.9988 0 6.5330 0 7.0664 0 7.5991 0 8.1313 0
 H, KJ/KG         -432.02  -432.02  -432.02  -432.02  -432.02  -432.02  -432.02  -432.02
 U, KJ/KG         -887.48  -888.59  -889.56  -890.44  -891.23  -891.94  -892.60  -893.20
 G, KJ/KG        -11914.5 -11936.0 -11955.4 -11972.9 -11989.0 -12003.8 -12017.6 -12030.4
 S, KJ/(KG)(K)    10.3746  10.3262  10.2831  10.2443  10.2089  10.1765  10.1466  10.1188

 M, (1/n)          20.205   20.288   20.364   20.433   20.497   20.557   20.612   20.665
 MW, MOL WT        12.954   13.016   13.072   13.124   13.172   13.217   13.258   13.297
 (dLV/dLP)t      -1.09709 -1.09732 -1.09748 -1.09759 -1.09765 -1.09767 -1.09767 -1.09764
 (dLV/dLT)p        2.1230   2.1179   2.1129   2.1079   2.1030   2.0983   2.0936   2.0891
 Cp, KJ/(KG)(K)    8.3195   8.2362   8.1604   8.0910   8.0269   7.9673   7.9118   7.8597
 GAMMAs            1.1440   1.1440   1.1440   1.1440   1.1440   1.1440   1.1439   1.1439
 SON VEL,M/SEC      721.8    722.7    723.5    724.2    724.8    725.4    725.9    726.3

 MASS FRACTIONS

 CH4              0.11928  0.12222  0.12486  0.12726  0.12946  0.13149  0.13337  0.13513
 *CO              0.13185  0.13146  0.13108  0.13073  0.13040  0.13008  0.12978  0.12948
 *CO2             0.03105  0.03092  0.03081  0.03072  0.03064  0.03058  0.03053  0.03049
 C2H4             0.00001  0.00001  0.00001  0.00001  0.00001  0.00001  0.00001  0.00001
 C2H6             0.00003  0.00003  0.00004  0.00004  0.00004  0.00005  0.00005  0.00005
 HCN              0.00001  0.00001  0.00001  0.00002  0.00002  0.00002  0.00002  0.00002
 *H2              0.04690  0.04611  0.04540  0.04476  0.04417  0.04362  0.04312  0.04264
 H2O              0.06519  0.06556  0.06589  0.06619  0.06646  0.06672  0.06696  0.06718
 NH3              0.00074  0.00078  0.00082  0.00086  0.00090  0.00093  0.00097  0.00100
 *N2              0.27216  0.27213  0.27209  0.27206  0.27203  0.27200  0.27197  0.27195
 C(gr)            0.33276  0.33077  0.32897  0.32735  0.32586  0.32449  0.32322  0.32204

  * THERMODYNAMIC PROPERTIES FITTED TO 20000.K

 NOTE. WEIGHT FRACTION OF FUEL IN TOTAL FUELS AND OF OXIDANT IN TOTAL OXIDANTS









         THERMODYNAMIC EQUILIBRIUM COMBUSTION PROPERTIES AT ASSIGNED

                                   PRESSURES

 CASE = MuleSimData1   

             REACTANT                    WT FRACTION      ENERGY      TEMP
                                          (SEE NOTE)     KJ/KG-MOL      K  
 OXIDANT     N2O                          1.0000000     81600.000    298.150
 FUEL        C32H66(a)                    1.0000000   -967800.000    298.150

 O/F=    0.75000  %FUEL= 57.142857  R,EQ.RATIO=12.625296  PHI,EQ.RATIO=12.625296

 THERMODYNAMIC PROPERTIES

 P, BAR            40.000   42.500   45.000   47.500   50.000   55.000   60.000   65.000
 T, K             1150.35  1154.25  1157.93  1161.42  1164.74  1170.93  1176.61  1181.85
 RHO, KG/CU M    8.6629 0 9.1940 0 9.7247 0 1.0255 1 1.0785 1 1.1843 1 1.2901 1 1.3957 1
 H, KJ/KG         -432.02  -432.02  -432.02  -432.02  -432.02  -432.02  -432.02  -432.02
 U, KJ/KG         -893.76  -894.27  -894.76  -895.21  -895.64  -896.42  -897.11  -897.75
 G, KJ/KG        -12042.3 -12053.6 -12064.2 -12074.2 -12083.7 -12101.3 -12117.3 -12132.0
 S, KJ/(KG)(K)    10.0928  10.0685  10.0457  10.0241  10.0036   9.9658   9.9313   9.8997

 M, (1/n)          20.714   20.761   20.806   20.848   20.888   20.964   21.034   21.099
 MW, MOL WT        13.334   13.369   13.402   13.433   13.463   13.519   13.571   13.619
 (dLV/dLP)t      -1.09760 -1.09755 -1.09748 -1.09740 -1.09731 -1.09712 -1.09691 -1.09669
 (dLV/dLT)p        2.0847   2.0804   2.0762   2.0722   2.0682   2.0606   2.0533   2.0464
 Cp, KJ/(KG)(K)    7.8107   7.7645   7.7206   7.6790   7.6394   7.5655   7.4977   7.4351
 GAMMAs            1.1438   1.1438   1.1437   1.1437   1.1436   1.1435   1.1433   1.1432
 SON VEL,M/SEC      726.7    727.1    727.5    727.8    728.1    728.7    729.2    729.7

 MASS FRACTIONS

 CH4              0.13678  0.13832  0.13979  0.14117  0.14248  0.14492  0.14716  0.14921
 *CO              0.12920  0.12893  0.12867  0.12841  0.12817  0.12769  0.12725  0.12682
 *CO2             0.03045  0.03042  0.03040  0.03038  0.03037  0.03034  0.03033  0.03033
 C2H4             0.00001  0.00001  0.00001  0.00001  0.00001  0.00001  0.00002  0.00002
 C2H6             0.00006  0.00006  0.00007  0.00007  0.00007  0.00008  0.00009  0.00009
 HCN              0.00002  0.00002  0.00002  0.00002  0.00002  0.00002  0.00003  0.00003
 *H2              0.04220  0.04178  0.04139  0.04102  0.04066  0.04000  0.03940  0.03884
 H2O              0.06739  0.06759  0.06777  0.06795  0.06813  0.06845  0.06874  0.06902
 NH3              0.00103  0.00106  0.00109  0.00111  0.00114  0.00119  0.00124  0.00129
 *N2              0.27192  0.27190  0.27187  0.27185  0.27183  0.27178  0.27174  0.27170
 C(gr)            0.32093  0.31989  0.31892  0.31799  0.31711  0.31549  0.31400  0.31264

  * THERMODYNAMIC PROPERTIES FITTED TO 20000.K

 NOTE. WEIGHT FRACTION OF FUEL IN TOTAL FUELS AND OF OXIDANT IN TOTAL OXIDANTS









         THERMODYNAMIC EQUILIBRIUM COMBUSTION PROPERTIES AT ASSIGNED

                                   PRESSURES

 CASE = MuleSimData1   

             REACTANT                    WT FRACTION      ENERGY      TEMP
                                          (SEE NOTE)     KJ/KG-MOL      K  
 OXIDANT     N2O                          1.0000000     81600.000    298.150
 FUEL        C32H66(a)                    1.0000000   -967800.000    298.150

 O/F=    0.75000  %FUEL= 57.142857  R,EQ.RATIO=12.625296  PHI,EQ.RATIO=12.625296

 THERMODYNAMIC PROPERTIES

 P, BAR            70.000
 T, K             1186.71
 RHO, KG/CU M    1.5012 1
 H, KJ/KG         -432.02
 U, KJ/KG         -898.32
 G, KJ/KG        -12145.5
 S, KJ/(KG)(K)     9.8706

 M, (1/n)          21.160
 MW, MOL WT        13.664
 (dLV/dLP)t      -1.09646
 (dLV/dLT)p        2.0398
 Cp, KJ/(KG)(K)    7.3770
 GAMMAs            1.1431
 SON VEL,M/SEC      730.1

 MASS FRACTIONS

 CH4              0.15111
 *CO              0.12641
 *CO2             0.03034
 C2H4             0.00002
 C2H6             0.00010
 HCN              0.00003
 *H2              0.03832
 H2O              0.06928
 NH3              0.00133
 *N2              0.27167
 C(gr)            0.31139

  * THERMODYNAMIC PROPERTIES FITTED TO 20000.K

 NOTE. WEIGHT FRACTION OF FUEL IN TOTAL FUELS AND OF OXIDANT IN TOTAL OXIDANTS









         THERMODYNAMIC EQUILIBRIUM COMBUSTION PROPERTIES AT ASSIGNED

                                   PRESSURES

 CASE = MuleSimData1   

             REACTANT                    WT FRACTION      ENERGY      TEMP
                                          (SEE NOTE)     KJ/KG-MOL      K  
 OXIDANT     N2O                          1.0000000     81600.000    298.150
 FUEL        C32H66(a)                    1.0000000   -967800.000    298.150

 O/F=    1.00000  %FUEL= 50.000000  R,EQ.RATIO= 9.468972  PHI,EQ.RATIO= 9.468972

 THERMODYNAMIC PROPERTIES

 P, BAR            1.0000   2.5000   5.0000   7.5000   10.000   12.500   15.000   17.500
 T, K             1012.82  1056.97  1094.03  1117.20  1134.30  1147.94  1159.33  1169.12
 RHO, KG/CU M    2.1357-1 5.2116-1 1.0236 0 1.5194 0 2.0112 0 2.5001 0 2.9867 0 3.4715 0
 H, KJ/KG         -146.26  -146.26  -146.26  -146.26  -146.26  -146.26  -146.26  -146.26
 U, KJ/KG         -614.50  -625.96  -634.75  -639.88  -643.48  -646.25  -648.49  -650.37
 G, KJ/KG        -12308.2 -12394.6 -12482.6 -12542.6 -12588.8 -12626.5 -12658.4 -12686.2
 S, KJ/(KG)(K)    12.0079  11.5881  11.2760  11.0959  10.9693  10.8718  10.7926  10.7260

 M, (1/n)          17.985   18.320   18.621   18.818   18.968   19.090   19.193   19.283
 MW, MOL WT        12.443   12.668   12.886   13.034   13.148   13.243   13.323   13.394
 (dLV/dLP)t      -1.04975 -1.06063 -1.06883 -1.07340 -1.07647 -1.07872 -1.08047 -1.08187
 (dLV/dLT)p        1.7028   1.7973   1.8588   1.8889   1.9071   1.9192   1.9277   1.9339
 Cp, KJ/(KG)(K)    7.2728   7.4754   7.5207   7.5016   7.4676   7.4297   7.3914   7.3540
 GAMMAs            1.1555   1.1567   1.1578   1.1584   1.1588   1.1590   1.1592   1.1593
 SON VEL,M/SEC      735.6    744.9    752.0    756.2    759.1    761.2    763.0    764.5

 MASS FRACTIONS

 CH4              0.02464  0.03606  0.04671  0.05373  0.05906  0.06338  0.06702  0.07018
 *CO              0.24104  0.23232  0.22630  0.22295  0.22062  0.21883  0.21737  0.21613
 *CO2             0.02565  0.02607  0.02613  0.02612  0.02611  0.02611  0.02612  0.02614
 C2H4             0.00000  0.00000  0.00000  0.00000  0.00000  0.00000  0.00001  0.00001
 C2H6             0.00000  0.00000  0.00000  0.00001  0.00001  0.00001  0.00001  0.00001
 HCN              0.00000  0.00001  0.00001  0.00002  0.00002  0.00002  0.00003  0.00003
 *H2              0.06436  0.06089  0.05776  0.05574  0.05423  0.05300  0.05197  0.05108
 H2O              0.02863  0.03389  0.03772  0.03988  0.04138  0.04253  0.04347  0.04425
 NH3              0.00010  0.00018  0.00027  0.00034  0.00040  0.00046  0.00050  0.00055
 *N2              0.31816  0.31809  0.31801  0.31795  0.31790  0.31785  0.31781  0.31777
 C(gr)            0.29742  0.29249  0.28708  0.28325  0.28026  0.27779  0.27569  0.27384

  * THERMODYNAMIC PROPERTIES FITTED TO 20000.K

 NOTE. WEIGHT FRACTION OF FUEL IN TOTAL FUELS AND OF OXIDANT IN TOTAL OXIDANTS









         THERMODYNAMIC EQUILIBRIUM COMBUSTION PROPERTIES AT ASSIGNED

                                   PRESSURES

 CASE = MuleSimData1   

             REACTANT                    WT FRACTION      ENERGY      TEMP
                                          (SEE NOTE)     KJ/KG-MOL      K  
 OXIDANT     N2O                          1.0000000     81600.000    298.150
 FUEL        C32H66(a)                    1.0000000   -967800.000    298.150

 O/F=    1.00000  %FUEL= 50.000000  R,EQ.RATIO= 9.468972  PHI,EQ.RATIO= 9.468972

 THERMODYNAMIC PROPERTIES

 P, BAR            20.000   22.500   25.000   27.500   30.000   32.500   35.000   37.500
 T, K             1177.72  1185.41  1192.35  1198.69  1204.52  1209.93  1214.96  1219.68
 RHO, KG/CU M    3.9548 0 4.4368 0 4.9177 0 5.3976 0 5.8767 0 6.3549 0 6.8324 0 7.3093 0
 H, KJ/KG         -146.26  -146.26  -146.26  -146.26  -146.26  -146.26  -146.26  -146.26
 U, KJ/KG         -651.98  -653.38  -654.63  -655.75  -656.76  -657.68  -658.53  -659.31
 G, KJ/KG        -12710.9 -12733.0 -12753.0 -12771.4 -12788.4 -12804.1 -12818.8 -12832.6
 S, KJ/(KG)(K)    10.6685  10.6181  10.5731  10.5325  10.4956  10.4617  10.4304  10.4013

 M, (1/n)          19.363   19.435   19.501   19.562   19.618   19.671   19.720   19.766
 MW, MOL WT        13.457   13.515   13.567   13.615   13.660   13.702   13.742   13.779
 (dLV/dLP)t      -1.08302 -1.08399 -1.08482 -1.08553 -1.08615 -1.08670 -1.08718 -1.08761
 (dLV/dLT)p        1.9384   1.9419   1.9444   1.9464   1.9478   1.9488   1.9495   1.9499
 Cp, KJ/(KG)(K)    7.3179   7.2834   7.2504   7.2190   7.1889   7.1601   7.1325   7.1060
 GAMMAs            1.1594   1.1594   1.1594   1.1594   1.1594   1.1594   1.1594   1.1594
 SON VEL,M/SEC      765.7    766.8    767.7    768.6    769.3    770.0    770.7    771.2

 MASS FRACTIONS

 CH4              0.07297  0.07547  0.07774  0.07982  0.08173  0.08351  0.08517  0.08673
 *CO              0.21506  0.21410  0.21324  0.21246  0.21174  0.21107  0.21045  0.20987
 *CO2             0.02616  0.02618  0.02621  0.02624  0.02627  0.02630  0.02634  0.02637
 C2H4             0.00001  0.00001  0.00001  0.00001  0.00001  0.00001  0.00001  0.00001
 C2H6             0.00002  0.00002  0.00002  0.00002  0.00003  0.00003  0.00003  0.00003
 HCN              0.00003  0.00003  0.00004  0.00004  0.00004  0.00004  0.00005  0.00005
 *H2              0.05030  0.04960  0.04896  0.04838  0.04784  0.04734  0.04688  0.04644
 H2O              0.04492  0.04552  0.04605  0.04653  0.04696  0.04737  0.04774  0.04809
 NH3              0.00059  0.00063  0.00067  0.00070  0.00073  0.00076  0.00079  0.00082
 *N2              0.31774  0.31770  0.31767  0.31764  0.31762  0.31759  0.31756  0.31754
 C(gr)            0.27221  0.27073  0.26939  0.26816  0.26702  0.26596  0.26497  0.26404

  * THERMODYNAMIC PROPERTIES FITTED TO 20000.K

 NOTE. WEIGHT FRACTION OF FUEL IN TOTAL FUELS AND OF OXIDANT IN TOTAL OXIDANTS









         THERMODYNAMIC EQUILIBRIUM COMBUSTION PROPERTIES AT ASSIGNED

                                   PRESSURES

 CASE = MuleSimData1   

             REACTANT                    WT FRACTION      ENERGY      TEMP
                                          (SEE NOTE)     KJ/KG-MOL      K  
 OXIDANT     N2O                          1.0000000     81600.000    298.150
 FUEL        C32H66(a)                    1.0000000   -967800.000    298.150

 O/F=    1.00000  %FUEL= 50.000000  R,EQ.RATIO= 9.468972  PHI,EQ.RATIO= 9.468972

 THERMODYNAMIC PROPERTIES

 P, BAR            40.000   42.500   45.000   47.500   50.000   55.000   60.000   65.000
 T, K             1224.12  1228.31  1232.28  1236.05  1239.64  1246.35  1252.51  1258.22
 RHO, KG/CU M    7.7855 0 8.2612 0 8.7364 0 9.2111 0 9.6854 0 1.0633 1 1.1578 1 1.2523 1
 H, KJ/KG         -146.26  -146.26  -146.26  -146.26  -146.26  -146.26  -146.26  -146.26
 U, KJ/KG         -660.04  -660.72  -661.35  -661.95  -662.51  -663.54  -664.47  -665.31
 G, KJ/KG        -12845.6 -12857.8 -12869.4 -12880.4 -12890.9 -12910.5 -12928.4 -12945.0
 S, KJ/(KG)(K)    10.3742  10.3488  10.3249  10.3023  10.2809  10.2413  10.2052  10.1722

 M, (1/n)          19.810   19.852   19.891   19.929   19.965   20.033   20.096   20.155
 MW, MOL WT        13.814   13.847   13.879   13.910   13.939   13.993   14.044   14.091
 (dLV/dLP)t      -1.08799 -1.08833 -1.08865 -1.08893 -1.08918 -1.08962 -1.08999 -1.09030
 (dLV/dLT)p        1.9501   1.9501   1.9500   1.9498   1.9494   1.9485   1.9472   1.9458
 Cp, KJ/(KG)(K)    7.0806   7.0562   7.0327   7.0100   6.9881   6.9465   6.9075   6.8708
 GAMMAs            1.1593   1.1593   1.1592   1.1592   1.1591   1.1590   1.1589   1.1588
 SON VEL,M/SEC      771.8    772.3    772.7    773.2    773.6    774.3    775.0    775.5

 MASS FRACTIONS

 CH4              0.08819  0.08957  0.09089  0.09213  0.09332  0.09554  0.09757  0.09946
 *CO              0.20932  0.20880  0.20830  0.20783  0.20738  0.20653  0.20575  0.20502
 *CO2             0.02640  0.02644  0.02648  0.02651  0.02655  0.02662  0.02669  0.02677
 CH3CN            0.00000  0.00000  0.00000  0.00000  0.00000  0.00000  0.00001  0.00001
 C2H4             0.00002  0.00002  0.00002  0.00002  0.00002  0.00002  0.00002  0.00002
 C2H6             0.00004  0.00004  0.00004  0.00004  0.00004  0.00005  0.00005  0.00006
 HCN              0.00005  0.00005  0.00005  0.00006  0.00006  0.00006  0.00007  0.00007
 *H2              0.04603  0.04564  0.04527  0.04493  0.04459  0.04397  0.04340  0.04287
 H2O              0.04841  0.04872  0.04901  0.04928  0.04954  0.05002  0.05047  0.05088
 NH3              0.00085  0.00088  0.00091  0.00093  0.00096  0.00100  0.00105  0.00109
 *N2              0.31751  0.31749  0.31747  0.31744  0.31742  0.31738  0.31734  0.31731
 C(gr)            0.26317  0.26234  0.26156  0.26082  0.26011  0.25878  0.25756  0.25644

  * THERMODYNAMIC PROPERTIES FITTED TO 20000.K

 NOTE. WEIGHT FRACTION OF FUEL IN TOTAL FUELS AND OF OXIDANT IN TOTAL OXIDANTS









         THERMODYNAMIC EQUILIBRIUM COMBUSTION PROPERTIES AT ASSIGNED

                                   PRESSURES

 CASE = MuleSimData1   

             REACTANT                    WT FRACTION      ENERGY      TEMP
                                          (SEE NOTE)     KJ/KG-MOL      K  
 OXIDANT     N2O                          1.0000000     81600.000    298.150
 FUEL        C32H66(a)                    1.0000000   -967800.000    298.150

 O/F=    1.00000  %FUEL= 50.000000  R,EQ.RATIO= 9.468972  PHI,EQ.RATIO= 9.468972

 THERMODYNAMIC PROPERTIES

 P, BAR            70.000
 T, K             1263.52
 RHO, KG/CU M    1.3466 1
 H, KJ/KG         -146.26
 U, KJ/KG         -666.09
 G, KJ/KG        -12960.5
 S, KJ/(KG)(K)    10.1416

 M, (1/n)          20.210
 MW, MOL WT        14.135
 (dLV/dLP)t      -1.09056
 (dLV/dLT)p        1.9443
 Cp, KJ/(KG)(K)    6.8361
 GAMMAs            1.1587
 SON VEL,M/SEC      776.1

 MASS FRACTIONS

 CH4              0.10121
 *CO              0.20433
 *CO2             0.02684
 CH3CN            0.00001
 C2H4             0.00003
 C2H6             0.00006
 HCN              0.00007
 *H2              0.04238
 H2O              0.05126
 NH3              0.00113
 *N2              0.31727
 C(gr)            0.25539

  * THERMODYNAMIC PROPERTIES FITTED TO 20000.K

 NOTE. WEIGHT FRACTION OF FUEL IN TOTAL FUELS AND OF OXIDANT IN TOTAL OXIDANTS









         THERMODYNAMIC EQUILIBRIUM COMBUSTION PROPERTIES AT ASSIGNED

                                   PRESSURES

 CASE = MuleSimData1   

             REACTANT                    WT FRACTION      ENERGY      TEMP
                                          (SEE NOTE)     KJ/KG-MOL      K  
 OXIDANT     N2O                          1.0000000     81600.000    298.150
 FUEL        C32H66(a)                    1.0000000   -967800.000    298.150

 O/F=    1.25000  %FUEL= 44.444444  R,EQ.RATIO= 7.575177  PHI,EQ.RATIO= 7.575177

 THERMODYNAMIC PROPERTIES

 P, BAR            1.0000   2.5000   5.0000   7.5000   10.000   12.500   15.000   17.500
 T, K             1093.88  1131.77  1165.61  1187.45  1203.84  1217.06  1228.18  1237.81
 RHO, KG/CU M    1.9532-1 4.7847-1 9.4123-1 1.3979 0 1.8507 0 2.3007 0 2.7485 0 3.1946 0
 H, KJ/KG          75.988   75.988   75.988   75.988   75.988   75.988   75.988   75.988
 U, KJ/KG         -435.99  -446.51  -455.23  -460.53  -464.35  -467.32  -469.75  -471.81
 G, KJ/KG        -13307.5 -13288.7 -13317.8 -13350.2 -13379.5 -13405.7 -13429.2 -13450.4
 S, KJ/(KG)(K)    12.2348  11.8087  11.4907  11.3067  11.1772  11.0773  10.9961  10.9277

 M, (1/n)          17.765   18.010   18.244   18.402   18.524   18.625   18.712   18.787
 MW, MOL WT        13.259   13.415   13.580   13.699   13.793   13.873   13.942   14.003
 (dLV/dLP)t      -1.02354 -1.03425 -1.04330 -1.04880 -1.05272 -1.05573 -1.05816 -1.06019
 (dLV/dLT)p        1.3121   1.4278   1.5158   1.5651   1.5983   1.6229   1.6419   1.6573
 Cp, KJ/(KG)(K)    4.3160   4.8982   5.2680   5.4449   5.5502   5.6196   5.6682   5.7035
 GAMMAs            1.1949   1.1875   1.1841   1.1827   1.1819   1.1813   1.1809   1.1806
 SON VEL,M/SEC      782.2    787.7    793.1    796.6    799.1    801.1    802.8    804.2

 MASS FRACTIONS

 CH4              0.01020  0.01722  0.02445  0.02952  0.03350  0.03680  0.03964  0.04215
 *CO              0.32343  0.31257  0.30422  0.29937  0.29595  0.29332  0.29118  0.28937
 *CO2             0.01021  0.01295  0.01475  0.01569  0.01631  0.01677  0.01714  0.01744
 C2H4             0.00000  0.00000  0.00000  0.00000  0.00000  0.00001  0.00001  0.00001
 C2H6             0.00000  0.00000  0.00000  0.00000  0.00000  0.00001  0.00001  0.00001
 HCN              0.00001  0.00002  0.00003  0.00004  0.00005  0.00005  0.00006  0.00007
 *H2              0.06177  0.05946  0.05720  0.05565  0.05445  0.05346  0.05262  0.05188
 H2O              0.01102  0.01576  0.01966  0.02201  0.02370  0.02501  0.02609  0.02701
 NH3              0.00006  0.00012  0.00019  0.00025  0.00030  0.00034  0.00038  0.00042
 *N2              0.35355  0.35349  0.35343  0.35338  0.35333  0.35329  0.35326  0.35322
 C(gr)            0.22975  0.22840  0.22607  0.22409  0.22240  0.22093  0.21961  0.21843

  * THERMODYNAMIC PROPERTIES FITTED TO 20000.K

 NOTE. WEIGHT FRACTION OF FUEL IN TOTAL FUELS AND OF OXIDANT IN TOTAL OXIDANTS









         THERMODYNAMIC EQUILIBRIUM COMBUSTION PROPERTIES AT ASSIGNED

                                   PRESSURES

 CASE = MuleSimData1   

             REACTANT                    WT FRACTION      ENERGY      TEMP
                                          (SEE NOTE)     KJ/KG-MOL      K  
 OXIDANT     N2O                          1.0000000     81600.000    298.150
 FUEL        C32H66(a)                    1.0000000   -967800.000    298.150

 O/F=    1.25000  %FUEL= 44.444444  R,EQ.RATIO= 7.575177  PHI,EQ.RATIO= 7.575177

 THERMODYNAMIC PROPERTIES

 P, BAR            20.000   22.500   25.000   27.500   30.000   32.500   35.000   37.500
 T, K             1246.32  1253.94  1260.87  1267.21  1273.06  1278.50  1283.58  1288.35
 RHO, KG/CU M    3.6392 0 4.0824 0 4.5246 0 4.9657 0 5.4060 0 5.8455 0 6.2842 0 6.7223 0
 H, KJ/KG          75.988   75.988   75.988   75.988   75.988   75.988   75.988   75.988
 U, KJ/KG         -473.59  -475.15  -476.55  -477.81  -478.95  -480.00  -480.96  -481.86
 G, KJ/KG        -13469.9 -13487.8 -13504.3 -13519.8 -13534.2 -13547.8 -13560.7 -13572.8
 S, KJ/(KG)(K)    10.8687  10.8169  10.7706  10.7289  10.6909  10.6561  10.6239  10.5940

 M, (1/n)          18.855   18.917   18.973   19.025   19.074   19.119   19.162   19.202
 MW, MOL WT        14.058   14.109   14.156   14.199   14.240   14.278   14.314   14.348
 (dLV/dLP)t      -1.06192 -1.06342 -1.06473 -1.06590 -1.06695 -1.06789 -1.06875 -1.06954
 (dLV/dLT)p        1.6700   1.6808   1.6900   1.6979   1.7049   1.7111   1.7166   1.7215
 Cp, KJ/(KG)(K)    5.7297   5.7494   5.7644   5.7759   5.7845   5.7910   5.7957   5.7990
 GAMMAs            1.1803   1.1800   1.1798   1.1796   1.1794   1.1792   1.1790   1.1789
 SON VEL,M/SEC      805.4    806.4    807.4    808.2    809.0    809.7    810.3    810.9

 MASS FRACTIONS

 CH4              0.04438  0.04641  0.04827  0.04998  0.05157  0.05306  0.05445  0.05576
 *CO              0.28780  0.28642  0.28519  0.28407  0.28304  0.28210  0.28123  0.28041
 *CO2             0.01770  0.01793  0.01813  0.01831  0.01848  0.01864  0.01878  0.01891
 C2H4             0.00001  0.00001  0.00001  0.00001  0.00001  0.00002  0.00002  0.00002
 C2H6             0.00001  0.00001  0.00001  0.00001  0.00001  0.00002  0.00002  0.00002
 HCN              0.00007  0.00008  0.00008  0.00009  0.00009  0.00010  0.00010  0.00010
 *H2              0.05122  0.05063  0.05009  0.04959  0.04912  0.04869  0.04828  0.04790
 H2O              0.02780  0.02850  0.02913  0.02970  0.03022  0.03070  0.03114  0.03156
 NH3              0.00046  0.00049  0.00052  0.00055  0.00058  0.00061  0.00063  0.00066
 *N2              0.35319  0.35316  0.35313  0.35310  0.35308  0.35305  0.35303  0.35300
 C(gr)            0.21735  0.21636  0.21544  0.21458  0.21378  0.21302  0.21231  0.21163

  * THERMODYNAMIC PROPERTIES FITTED TO 20000.K

 NOTE. WEIGHT FRACTION OF FUEL IN TOTAL FUELS AND OF OXIDANT IN TOTAL OXIDANTS









         THERMODYNAMIC EQUILIBRIUM COMBUSTION PROPERTIES AT ASSIGNED

                                   PRESSURES

 CASE = MuleSimData1   

             REACTANT                    WT FRACTION      ENERGY      TEMP
                                          (SEE NOTE)     KJ/KG-MOL      K  
 OXIDANT     N2O                          1.0000000     81600.000    298.150
 FUEL        C32H66(a)                    1.0000000   -967800.000    298.150

 O/F=    1.25000  %FUEL= 44.444444  R,EQ.RATIO= 7.575177  PHI,EQ.RATIO= 7.575177

 THERMODYNAMIC PROPERTIES

 P, BAR            40.000   42.500   45.000   47.500   50.000   55.000   60.000   65.000
 T, K             1292.85  1297.10  1301.13  1304.97  1308.64  1315.49  1321.81  1327.67
 RHO, KG/CU M    7.1598 0 7.5967 0 8.0330 0 8.4689 0 8.9043 0 9.7738 0 1.0642 1 1.1508 1
 H, KJ/KG          75.988   75.988   75.988   75.988   75.988   75.988   75.988   75.988
 U, KJ/KG         -482.69  -483.47  -484.20  -484.89  -485.54  -486.74  -487.83  -488.82
 G, KJ/KG        -13584.3 -13595.3 -13605.8 -13615.8 -13625.4 -13643.5 -13660.3 -13675.9
 S, KJ/(KG)(K)    10.5661  10.5399  10.5153  10.4920  10.4700  10.4292  10.3920  10.3579

 M, (1/n)          19.241   19.277   19.312   19.345   19.377   19.437   19.493   19.545
 MW, MOL WT        14.380   14.411   14.441   14.469   14.496   14.547   14.595   14.640
 (dLV/dLP)t      -1.07026 -1.07093 -1.07155 -1.07212 -1.07266 -1.07363 -1.07449 -1.07525
 (dLV/dLT)p        1.7259   1.7299   1.7335   1.7368   1.7398   1.7451   1.7496   1.7534
 Cp, KJ/(KG)(K)    5.8011   5.8023   5.8027   5.8025   5.8016   5.7987   5.7943   5.7890
 GAMMAs            1.1787   1.1786   1.1784   1.1783   1.1782   1.1779   1.1777   1.1774
 SON VEL,M/SEC      811.5    812.0    812.5    812.9    813.4    814.1    814.9    815.5

 MASS FRACTIONS

 CH4              0.05701  0.05819  0.05931  0.06038  0.06141  0.06333  0.06511  0.06677
 *CO              0.27965  0.27893  0.27825  0.27760  0.27699  0.27584  0.27479  0.27382
 *CO2             0.01904  0.01916  0.01927  0.01938  0.01949  0.01968  0.01986  0.02003
 CH3CN            0.00000  0.00001  0.00001  0.00001  0.00001  0.00001  0.00001  0.00001
 C2H4             0.00002  0.00002  0.00002  0.00002  0.00002  0.00003  0.00003  0.00003
 C2H6             0.00002  0.00002  0.00002  0.00003  0.00003  0.00003  0.00003  0.00004
 HCN              0.00011  0.00011  0.00012  0.00012  0.00012  0.00013  0.00014  0.00014
 HNCO             0.00000  0.00000  0.00000  0.00000  0.00000  0.00001  0.00001  0.00001
 *H2              0.04754  0.04720  0.04687  0.04656  0.04627  0.04571  0.04519  0.04472
 H2O              0.03195  0.03231  0.03266  0.03298  0.03329  0.03387  0.03440  0.03489
 NH3              0.00068  0.00071  0.00073  0.00075  0.00078  0.00082  0.00086  0.00090
 *N2              0.35298  0.35296  0.35294  0.35292  0.35290  0.35286  0.35282  0.35278
 C(gr)            0.21099  0.21038  0.20979  0.20923  0.20870  0.20769  0.20675  0.20587

  * THERMODYNAMIC PROPERTIES FITTED TO 20000.K

 NOTE. WEIGHT FRACTION OF FUEL IN TOTAL FUELS AND OF OXIDANT IN TOTAL OXIDANTS









         THERMODYNAMIC EQUILIBRIUM COMBUSTION PROPERTIES AT ASSIGNED

                                   PRESSURES

 CASE = MuleSimData1   

             REACTANT                    WT FRACTION      ENERGY      TEMP
                                          (SEE NOTE)     KJ/KG-MOL      K  
 OXIDANT     N2O                          1.0000000     81600.000    298.150
 FUEL        C32H66(a)                    1.0000000   -967800.000    298.150

 O/F=    1.25000  %FUEL= 44.444444  R,EQ.RATIO= 7.575177  PHI,EQ.RATIO= 7.575177

 THERMODYNAMIC PROPERTIES

 P, BAR            70.000
 T, K             1333.14
 RHO, KG/CU M    1.2374 1
 H, KJ/KG          75.988
 U, KJ/KG         -489.73
 G, KJ/KG        -13690.6
 S, KJ/(KG)(K)    10.3264

 M, (1/n)          19.594
 MW, MOL WT        14.682
 (dLV/dLP)t      -1.07593
 (dLV/dLT)p        1.7567
 Cp, KJ/(KG)(K)    5.7829
 GAMMAs            1.1772
 SON VEL,M/SEC      816.1

 MASS FRACTIONS

 CH4              0.06831
 *CO              0.27291
 *CO2             0.02019
 CH3CN            0.00001
 C2H4             0.00003
 C2H6             0.00004
 HCN              0.00015
 HNCO             0.00001
 *H2              0.04427
 H2O              0.03534
 NH3              0.00093
 *N2              0.35275
 C(gr)            0.20505

  * THERMODYNAMIC PROPERTIES FITTED TO 20000.K

 NOTE. WEIGHT FRACTION OF FUEL IN TOTAL FUELS AND OF OXIDANT IN TOTAL OXIDANTS









         THERMODYNAMIC EQUILIBRIUM COMBUSTION PROPERTIES AT ASSIGNED

                                   PRESSURES

 CASE = MuleSimData1   

             REACTANT                    WT FRACTION      ENERGY      TEMP
                                          (SEE NOTE)     KJ/KG-MOL      K  
 OXIDANT     N2O                          1.0000000     81600.000    298.150
 FUEL        C32H66(a)                    1.0000000   -967800.000    298.150

 O/F=    1.50000  %FUEL= 40.000000  R,EQ.RATIO= 6.312648  PHI,EQ.RATIO= 6.312648

 THERMODYNAMIC PROPERTIES

 P, BAR            1.0000   2.5000   5.0000   7.5000   10.000   12.500   15.000   17.500
 T, K             1207.69  1229.81  1253.98  1271.19  1284.75  1296.01  1305.70  1314.22
 RHO, KG/CU M    1.7751-1 4.3911-1 8.6868-1 1.2935 0 1.7150 0 2.1342 0 2.5514 0 2.9670 0
 H, KJ/KG          253.79   253.79   253.79   253.79   253.79   253.79   253.79   253.79
 U, KJ/KG         -309.56  -315.55  -321.79  -326.05  -329.29  -331.92  -334.12  -336.02
 G, KJ/KG        -14700.3 -14450.3 -14338.6 -14303.0 -14290.0 -14286.6 -14287.9 -14291.7
 S, KJ/(KG)(K)    12.3824  11.9564  11.6368  11.4513  11.3204  11.2193  11.1371  11.0678

 M, (1/n)          17.824   17.960   18.114   18.228   18.320   18.398   18.466   18.526
 MW, MOL WT        14.113   14.207   14.321   14.409   14.482   14.546   14.602   14.653
 (dLV/dLP)t      -1.00756 -1.01449 -1.02183 -1.02686 -1.03070 -1.03379 -1.03639 -1.03861
 (dLV/dLT)p        1.0878   1.1634   1.2387   1.2878   1.3239   1.3523   1.3754   1.3949
 Cp, KJ/(KG)(K)    2.6792   3.0877   3.4643   3.6929   3.8522   3.9718   4.0658   4.1421
 GAMMAs            1.2476   1.2322   1.2217   1.2165   1.2133   1.2111   1.2094   1.2080
 SON VEL,M/SEC      838.4    837.6    838.6    839.9    841.1    842.2    843.2    844.1

 MASS FRACTIONS

 CH4              0.00353  0.00724  0.01170  0.01510  0.01790  0.02030  0.02241  0.02430
 *CO              0.37426  0.36774  0.36118  0.35683  0.35356  0.35094  0.34876  0.34688
 *CO2             0.00238  0.00428  0.00606  0.00718  0.00799  0.00863  0.00914  0.00958
 C2H4             0.00000  0.00000  0.00000  0.00000  0.00001  0.00001  0.00001  0.00001
 HCN              0.00005  0.00007  0.00008  0.00010  0.00011  0.00012  0.00013  0.00014
 *H2              0.05780  0.05656  0.05512  0.05405  0.05317  0.05243  0.05179  0.05121
 H2O              0.00293  0.00557  0.00832  0.01021  0.01164  0.01281  0.01380  0.01465
 NH3              0.00003  0.00007  0.00012  0.00017  0.00021  0.00024  0.00028  0.00031
 *N2              0.38184  0.38180  0.38175  0.38170  0.38166  0.38163  0.38159  0.38156
 C(gr)            0.17718  0.17667  0.17565  0.17465  0.17373  0.17288  0.17209  0.17135

  * THERMODYNAMIC PROPERTIES FITTED TO 20000.K

 NOTE. WEIGHT FRACTION OF FUEL IN TOTAL FUELS AND OF OXIDANT IN TOTAL OXIDANTS









         THERMODYNAMIC EQUILIBRIUM COMBUSTION PROPERTIES AT ASSIGNED

                                   PRESSURES

 CASE = MuleSimData1   

             REACTANT                    WT FRACTION      ENERGY      TEMP
                                          (SEE NOTE)     KJ/KG-MOL      K  
 OXIDANT     N2O                          1.0000000     81600.000    298.150
 FUEL        C32H66(a)                    1.0000000   -967800.000    298.150

 O/F=    1.50000  %FUEL= 40.000000  R,EQ.RATIO= 6.312648  PHI,EQ.RATIO= 6.312648

 THERMODYNAMIC PROPERTIES

 P, BAR            20.000   22.500   25.000   27.500   30.000   32.500   35.000   37.500
 T, K             1321.84  1328.74  1335.05  1340.88  1346.30  1351.36  1356.10  1360.58
 RHO, KG/CU M    3.3813 0 3.7945 0 4.2066 0 4.6177 0 5.0281 0 5.4377 0 5.8466 0 6.2549 0
 H, KJ/KG          253.79   253.79   253.79   253.79   253.79   253.79   253.79   253.79
 U, KJ/KG         -337.69  -339.18  -340.52  -341.74  -342.86  -343.89  -344.85  -345.74
 G, KJ/KG        -14296.9 -14303.0 -14309.5 -14316.2 -14323.1 -14329.9 -14336.8 -14343.6
 S, KJ/(KG)(K)    11.0079  10.9553  10.9084  10.8660  10.8274  10.7919  10.7592  10.7288

 M, (1/n)          18.581   18.631   18.678   18.721   18.761   18.799   18.835   18.869
 MW, MOL WT        14.700   14.743   14.783   14.821   14.856   14.890   14.921   14.952
 (dLV/dLP)t      -1.04055 -1.04228 -1.04382 -1.04521 -1.04648 -1.04765 -1.04873 -1.04972
 (dLV/dLT)p        1.4115   1.4261   1.4389   1.4503   1.4606   1.4699   1.4784   1.4862
 Cp, KJ/(KG)(K)    4.2055   4.2592   4.3054   4.3455   4.3807   4.4119   4.4397   4.4647
 GAMMAs            1.2069   1.2060   1.2052   1.2045   1.2038   1.2033   1.2028   1.2023
 SON VEL,M/SEC      844.9    845.6    846.3    846.9    847.5    848.0    848.5    849.0

 MASS FRACTIONS

 CH4              0.02602  0.02760  0.02906  0.03042  0.03169  0.03289  0.03402  0.03509
 *CO              0.34523  0.34376  0.34243  0.34122  0.34011  0.33909  0.33813  0.33724
 *CO2             0.00996  0.01029  0.01059  0.01086  0.01110  0.01133  0.01154  0.01174
 CH3CN            0.00000  0.00000  0.00000  0.00000  0.00000  0.00001  0.00001  0.00001
 C2H4             0.00001  0.00001  0.00001  0.00002  0.00002  0.00002  0.00002  0.00002
 C2H6             0.00000  0.00001  0.00001  0.00001  0.00001  0.00001  0.00001  0.00001
 HCN              0.00015  0.00016  0.00017  0.00018  0.00018  0.00019  0.00020  0.00021
 *H2              0.05069  0.05021  0.04977  0.04936  0.04898  0.04862  0.04828  0.04796
 H2O              0.01540  0.01607  0.01668  0.01723  0.01775  0.01822  0.01866  0.01908
 NH3              0.00034  0.00036  0.00039  0.00042  0.00044  0.00047  0.00049  0.00051
 *N2              0.38153  0.38150  0.38148  0.38145  0.38143  0.38140  0.38138  0.38136
 C(gr)            0.17066  0.17002  0.16940  0.16883  0.16827  0.16775  0.16725  0.16677

  * THERMODYNAMIC PROPERTIES FITTED TO 20000.K

 NOTE. WEIGHT FRACTION OF FUEL IN TOTAL FUELS AND OF OXIDANT IN TOTAL OXIDANTS









         THERMODYNAMIC EQUILIBRIUM COMBUSTION PROPERTIES AT ASSIGNED

                                   PRESSURES

 CASE = MuleSimData1   

             REACTANT                    WT FRACTION      ENERGY      TEMP
                                          (SEE NOTE)     KJ/KG-MOL      K  
 OXIDANT     N2O                          1.0000000     81600.000    298.150
 FUEL        C32H66(a)                    1.0000000   -967800.000    298.150

 O/F=    1.50000  %FUEL= 40.000000  R,EQ.RATIO= 6.312648  PHI,EQ.RATIO= 6.312648

 THERMODYNAMIC PROPERTIES

 P, BAR            40.000   42.500   45.000   47.500   50.000   55.000   60.000   65.000
 T, K             1364.82  1368.84  1372.67  1376.32  1379.82  1386.39  1392.47  1398.14
 RHO, KG/CU M    6.6626 0 7.0698 0 7.4764 0 7.8826 0 8.2884 0 9.0986 0 9.9074 0 1.0715 1
 H, KJ/KG          253.79   253.79   253.79   253.79   253.79   253.79   253.79   253.79
 U, KJ/KG         -346.58  -347.36  -348.10  -348.80  -349.46  -350.70  -351.82  -352.85
 G, KJ/KG        -14350.2 -14356.8 -14363.2 -14369.5 -14375.7 -14387.7 -14399.2 -14410.2
 S, KJ/(KG)(K)    10.7003  10.6737  10.6486  10.6249  10.6025  10.5609  10.5230  10.4882

 M, (1/n)          18.901   18.932   18.962   18.990   19.018   19.069   19.118   19.163
 MW, MOL WT        14.981   15.008   15.035   15.061   15.085   15.132   15.176   15.217
 (dLV/dLP)t      -1.05065 -1.05152 -1.05233 -1.05309 -1.05381 -1.05513 -1.05632 -1.05740
 (dLV/dLT)p        1.4933   1.5000   1.5061   1.5118   1.5172   1.5269   1.5355   1.5432
 Cp, KJ/(KG)(K)    4.4872   4.5075   4.5261   4.5430   4.5585   4.5859   4.6092   4.6293
 GAMMAs            1.2019   1.2015   1.2011   1.2007   1.2004   1.1998   1.1993   1.1987
 SON VEL,M/SEC      849.4    849.9    850.3    850.6    851.0    851.6    852.2    852.8

 MASS FRACTIONS

 CH4              0.03611  0.03709  0.03802  0.03891  0.03977  0.04139  0.04290  0.04431
 *CO              0.33640  0.33561  0.33486  0.33414  0.33346  0.33220  0.33103  0.32996
 *CO2             0.01192  0.01209  0.01226  0.01241  0.01256  0.01283  0.01308  0.01332
 CH3CN            0.00001  0.00001  0.00001  0.00001  0.00001  0.00001  0.00001  0.00001
 C2H4             0.00002  0.00002  0.00003  0.00003  0.00003  0.00003  0.00003  0.00004
 C2H6             0.00001  0.00001  0.00001  0.00002  0.00002  0.00002  0.00002  0.00002
 HCN              0.00021  0.00022  0.00023  0.00023  0.00024  0.00025  0.00026  0.00027
 HNCO             0.00000  0.00000  0.00001  0.00001  0.00001  0.00001  0.00001  0.00001
 *H2              0.04766  0.04736  0.04709  0.04682  0.04657  0.04609  0.04564  0.04522
 H2O              0.01947  0.01983  0.02018  0.02051  0.02083  0.02142  0.02196  0.02246
 NH3              0.00053  0.00055  0.00057  0.00059  0.00061  0.00065  0.00068  0.00072
 *N2              0.38134  0.38132  0.38130  0.38128  0.38126  0.38122  0.38118  0.38115
 C(gr)            0.16631  0.16587  0.16544  0.16503  0.16463  0.16388  0.16317  0.16250

  * THERMODYNAMIC PROPERTIES FITTED TO 20000.K

 NOTE. WEIGHT FRACTION OF FUEL IN TOTAL FUELS AND OF OXIDANT IN TOTAL OXIDANTS









         THERMODYNAMIC EQUILIBRIUM COMBUSTION PROPERTIES AT ASSIGNED

                                   PRESSURES

 CASE = MuleSimData1   

             REACTANT                    WT FRACTION      ENERGY      TEMP
                                          (SEE NOTE)     KJ/KG-MOL      K  
 OXIDANT     N2O                          1.0000000     81600.000    298.150
 FUEL        C32H66(a)                    1.0000000   -967800.000    298.150

 O/F=    1.50000  %FUEL= 40.000000  R,EQ.RATIO= 6.312648  PHI,EQ.RATIO= 6.312648

 THERMODYNAMIC PROPERTIES

 P, BAR            70.000
 T, K             1403.44
 RHO, KG/CU M    1.1521 1
 H, KJ/KG          253.79
 U, KJ/KG         -353.80
 G, KJ/KG        -14420.7
 S, KJ/(KG)(K)    10.4561

 M, (1/n)          19.205
 MW, MOL WT        15.256
 (dLV/dLP)t      -1.05839
 (dLV/dLT)p        1.5501
 Cp, KJ/(KG)(K)    4.6467
 GAMMAs            1.1983
 SON VEL,M/SEC      853.3

 MASS FRACTIONS

 CH4              0.04563
 *CO              0.32895
 *CO2             0.01353
 CH3CN            0.00001
 C2H4             0.00004
 C2H6             0.00002
 HCN              0.00028
 HNCO             0.00001
 *H2              0.04483
 H2O              0.02293
 NH3              0.00075
 *N2              0.38112
 C(gr)            0.16187

  * THERMODYNAMIC PROPERTIES FITTED TO 20000.K

 NOTE. WEIGHT FRACTION OF FUEL IN TOTAL FUELS AND OF OXIDANT IN TOTAL OXIDANTS









         THERMODYNAMIC EQUILIBRIUM COMBUSTION PROPERTIES AT ASSIGNED

                                   PRESSURES

 CASE = MuleSimData1   

             REACTANT                    WT FRACTION      ENERGY      TEMP
                                          (SEE NOTE)     KJ/KG-MOL      K  
 OXIDANT     N2O                          1.0000000     81600.000    298.150
 FUEL        C32H66(a)                    1.0000000   -967800.000    298.150

 O/F=    2.00000  %FUEL= 33.333333  R,EQ.RATIO= 4.734486  PHI,EQ.RATIO= 4.734486

 THERMODYNAMIC PROPERTIES

 P, BAR            1.0000   2.5000   5.0000   7.5000   10.000   12.500   15.000   17.500
 T, K             1472.75  1476.52  1482.32  1487.64  1492.57  1497.16  1501.46  1505.52
 RHO, KG/CU M    1.4946-1 3.7318-1 7.4496-1 1.1156 0 1.4851 0 1.8537 0 2.2216 0 2.5886 0
 H, KJ/KG          520.49   520.49   520.49   520.49   520.49   520.49   520.49   520.49
 U, KJ/KG         -148.60  -149.43  -150.68  -151.82  -152.86  -153.82  -154.71  -155.54
 G, KJ/KG        -17926.2 -17359.1 -16963.6 -16753.5 -16616.8 -16518.9 -16444.7 -16386.2
 S, KJ/(KG)(K)    12.5253  12.1093  11.7951  11.6117  11.4818  11.3812  11.2991  11.2299

 M, (1/n)          18.301   18.325   18.363   18.398   18.430   18.461   18.489   18.516
 MW, MOL WT        15.843   15.867   15.904   15.938   15.971   16.001   16.030   16.057
 (dLV/dLP)t      -1.00092 -1.00222 -1.00421 -1.00601 -1.00765 -1.00917 -1.01057 -1.01188
 (dLV/dLT)p        1.0082   1.0195   1.0368   1.0522   1.0663   1.0791   1.0909   1.1018
 Cp, KJ/(KG)(K)    2.1016   2.1504   2.2242   2.2897   2.3485   2.4017   2.4502   2.4947
 GAMMAs            1.2801   1.2773   1.2732   1.2699   1.2670   1.2645   1.2624   1.2604
 SON VEL,M/SEC      925.5    925.0    924.4    924.0    923.7    923.4    923.2    923.1

 MASS FRACTIONS

 CH4              0.00052  0.00125  0.00241  0.00348  0.00448  0.00541  0.00630  0.00714
 *CO              0.42368  0.42283  0.42154  0.42037  0.41930  0.41831  0.41739  0.41653
 *CO2             0.00016  0.00038  0.00071  0.00101  0.00129  0.00154  0.00178  0.00200
 C2H2,acetylene   0.00000  0.00000  0.00000  0.00000  0.00001  0.00001  0.00001  0.00001
 C2H4             0.00000  0.00000  0.00000  0.00001  0.00001  0.00001  0.00001  0.00001
 HCN              0.00053  0.00054  0.00056  0.00058  0.00060  0.00062  0.00063  0.00065
 HNC              0.00001  0.00001  0.00001  0.00001  0.00001  0.00001  0.00001  0.00001
 *H2              0.04900  0.04877  0.04842  0.04809  0.04778  0.04749  0.04722  0.04696
 H2O              0.00025  0.00062  0.00117  0.00167  0.00214  0.00257  0.00297  0.00334
 NH3              0.00001  0.00002  0.00005  0.00007  0.00009  0.00011  0.00013  0.00015
 *N2              0.42404  0.42402  0.42399  0.42396  0.42393  0.42391  0.42388  0.42386
 C(gr)            0.10181  0.10155  0.10113  0.10074  0.10037  0.10001  0.09967  0.09934

  * THERMODYNAMIC PROPERTIES FITTED TO 20000.K

 NOTE. WEIGHT FRACTION OF FUEL IN TOTAL FUELS AND OF OXIDANT IN TOTAL OXIDANTS









         THERMODYNAMIC EQUILIBRIUM COMBUSTION PROPERTIES AT ASSIGNED

                                   PRESSURES

 CASE = MuleSimData1   

             REACTANT                    WT FRACTION      ENERGY      TEMP
                                          (SEE NOTE)     KJ/KG-MOL      K  
 OXIDANT     N2O                          1.0000000     81600.000    298.150
 FUEL        C32H66(a)                    1.0000000   -967800.000    298.150

 O/F=    2.00000  %FUEL= 33.333333  R,EQ.RATIO= 4.734486  PHI,EQ.RATIO= 4.734486

 THERMODYNAMIC PROPERTIES

 P, BAR            20.000   22.500   25.000   27.500   30.000   32.500   35.000   37.500
 T, K             1509.35  1512.99  1516.46  1519.77  1522.94  1525.98  1528.90  1531.72
 RHO, KG/CU M    2.9551 0 3.3208 0 3.6861 0 4.0508 0 4.4150 0 4.7787 0 5.1421 0 5.5050 0
 H, KJ/KG          520.49   520.49   520.49   520.49   520.49   520.49   520.49   520.49
 U, KJ/KG         -156.31  -157.04  -157.74  -158.39  -159.01  -159.60  -160.17  -160.71
 G, KJ/KG        -16338.8 -16299.7 -16266.7 -16238.6 -16214.4 -16193.3 -16174.9 -16158.6
 S, KJ/(KG)(K)    11.1699  11.1172  11.0700  11.0274  10.9886  10.9529  10.9199  10.8892

 M, (1/n)          18.542   18.567   18.591   18.613   18.635   18.656   18.676   18.696
 MW, MOL WT        16.084   16.109   16.133   16.156   16.179   16.200   16.221   16.242
 (dLV/dLP)t      -1.01310 -1.01425 -1.01534 -1.01636 -1.01733 -1.01826 -1.01914 -1.01998
 (dLV/dLT)p        1.1119   1.1214   1.1303   1.1386   1.1465   1.1540   1.1610   1.1677
 Cp, KJ/(KG)(K)    2.5357   2.5738   2.6092   2.6422   2.6732   2.7023   2.7298   2.7557
 GAMMAs            1.2587   1.2571   1.2557   1.2544   1.2532   1.2521   1.2511   1.2501
 SON VEL,M/SEC      923.0    922.9    922.9    922.8    922.8    922.8    922.8    922.8

 MASS FRACTIONS

 CH4              0.00794  0.00870  0.00944  0.01014  0.01081  0.01146  0.01209  0.01269
 *CO              0.41572  0.41495  0.41423  0.41354  0.41289  0.41226  0.41166  0.41109
 *CO2             0.00220  0.00239  0.00258  0.00275  0.00291  0.00307  0.00322  0.00336
 C2H2,acetylene   0.00001  0.00001  0.00001  0.00001  0.00001  0.00001  0.00001  0.00001
 CH3CN            0.00001  0.00001  0.00001  0.00001  0.00001  0.00001  0.00001  0.00001
 C2H4             0.00001  0.00002  0.00002  0.00002  0.00002  0.00002  0.00003  0.00003
 HCN              0.00067  0.00068  0.00070  0.00071  0.00072  0.00074  0.00075  0.00076
 HNC              0.00001  0.00001  0.00001  0.00001  0.00001  0.00001  0.00001  0.00001
 HNCO             0.00000  0.00000  0.00000  0.00000  0.00000  0.00000  0.00000  0.00001
 *H2              0.04671  0.04648  0.04626  0.04604  0.04584  0.04564  0.04545  0.04527
 H2O              0.00370  0.00403  0.00435  0.00465  0.00493  0.00521  0.00547  0.00572
 NH3              0.00017  0.00018  0.00020  0.00022  0.00023  0.00025  0.00027  0.00028
 *N2              0.42383  0.42381  0.42379  0.42377  0.42374  0.42372  0.42370  0.42368
 C(gr)            0.09902  0.09871  0.09842  0.09813  0.09785  0.09758  0.09732  0.09707

  * THERMODYNAMIC PROPERTIES FITTED TO 20000.K

 NOTE. WEIGHT FRACTION OF FUEL IN TOTAL FUELS AND OF OXIDANT IN TOTAL OXIDANTS









         THERMODYNAMIC EQUILIBRIUM COMBUSTION PROPERTIES AT ASSIGNED

                                   PRESSURES

 CASE = MuleSimData1   

             REACTANT                    WT FRACTION      ENERGY      TEMP
                                          (SEE NOTE)     KJ/KG-MOL      K  
 OXIDANT     N2O                          1.0000000     81600.000    298.150
 FUEL        C32H66(a)                    1.0000000   -967800.000    298.150

 O/F=    2.00000  %FUEL= 33.333333  R,EQ.RATIO= 4.734486  PHI,EQ.RATIO= 4.734486

 THERMODYNAMIC PROPERTIES

 P, BAR            40.000   42.500   45.000   47.500   50.000   55.000   60.000   65.000
 T, K             1534.43  1537.06  1539.60  1542.05  1544.44  1549.00  1553.32  1557.42
 RHO, KG/CU M    5.8675 0 6.2297 0 6.5916 0 6.9531 0 7.3143 0 8.0358 0 8.7563 0 9.4758 0
 H, KJ/KG          520.49   520.49   520.49   520.49   520.49   520.49   520.49   520.49
 U, KJ/KG         -161.22  -161.72  -162.20  -162.66  -163.10  -163.94  -164.73  -165.46
 G, KJ/KG        -16144.2 -16131.3 -16119.7 -16109.4 -16100.0 -16083.8 -16070.4 -16059.2
 S, KJ/(KG)(K)    10.8605  10.8335  10.8082  10.7842  10.7615  10.7194  10.6809  10.6457

 M, (1/n)          18.715   18.733   18.751   18.768   18.785   18.817   18.848   18.877
 MW, MOL WT        16.261   16.281   16.299   16.317   16.335   16.369   16.402   16.433
 (dLV/dLP)t      -1.02078 -1.02155 -1.02229 -1.02300 -1.02368 -1.02497 -1.02617 -1.02730
 (dLV/dLT)p        1.1741   1.1802   1.1861   1.1916   1.1970   1.2070   1.2163   1.2250
 Cp, KJ/(KG)(K)    2.7803   2.8036   2.8257   2.8468   2.8669   2.9045   2.9389   2.9707
 GAMMAs            1.2492   1.2484   1.2476   1.2469   1.2461   1.2448   1.2436   1.2425
 SON VEL,M/SEC      922.8    922.9    922.9    922.9    923.0    923.0    923.1    923.2

 MASS FRACTIONS

 CH4              0.01328  0.01385  0.01440  0.01493  0.01545  0.01645  0.01740  0.01831
 *CO              0.41054  0.41001  0.40949  0.40900  0.40852  0.40761  0.40675  0.40593
 *CO2             0.00350  0.00363  0.00375  0.00388  0.00399  0.00422  0.00443  0.00463
 C2H2,acetylene   0.00001  0.00001  0.00001  0.00001  0.00001  0.00001  0.00001  0.00001
 CH3CN            0.00001  0.00001  0.00001  0.00001  0.00001  0.00001  0.00002  0.00002
 C2H4             0.00003  0.00003  0.00003  0.00003  0.00004  0.00004  0.00004  0.00005
 C2H6             0.00000  0.00000  0.00000  0.00000  0.00001  0.00001  0.00001  0.00001
 HCN              0.00078  0.00079  0.00080  0.00081  0.00082  0.00084  0.00087  0.00089
 HNC              0.00001  0.00001  0.00001  0.00001  0.00001  0.00001  0.00001  0.00002
 HNCO             0.00001  0.00001  0.00001  0.00001  0.00001  0.00001  0.00001  0.00001
 *H2              0.04509  0.04492  0.04475  0.04459  0.04443  0.04413  0.04384  0.04356
 HCHO,formaldehy  0.00000  0.00000  0.00000  0.00000  0.00000  0.00000  0.00000  0.00001
 H2O              0.00597  0.00620  0.00643  0.00664  0.00685  0.00726  0.00764  0.00799
 NH3              0.00030  0.00031  0.00032  0.00034  0.00035  0.00038  0.00041  0.00043
 *N2              0.42367  0.42365  0.42363  0.42361  0.42359  0.42356  0.42352  0.42349
 C(gr)            0.09682  0.09658  0.09634  0.09611  0.09589  0.09546  0.09504  0.09464

  * THERMODYNAMIC PROPERTIES FITTED TO 20000.K

 NOTE. WEIGHT FRACTION OF FUEL IN TOTAL FUELS AND OF OXIDANT IN TOTAL OXIDANTS









         THERMODYNAMIC EQUILIBRIUM COMBUSTION PROPERTIES AT ASSIGNED

                                   PRESSURES

 CASE = MuleSimData1   

             REACTANT                    WT FRACTION      ENERGY      TEMP
                                          (SEE NOTE)     KJ/KG-MOL      K  
 OXIDANT     N2O                          1.0000000     81600.000    298.150
 FUEL        C32H66(a)                    1.0000000   -967800.000    298.150

 O/F=    2.00000  %FUEL= 33.333333  R,EQ.RATIO= 4.734486  PHI,EQ.RATIO= 4.734486

 THERMODYNAMIC PROPERTIES

 P, BAR            70.000
 T, K             1561.32
 RHO, KG/CU M    1.0194 1
 H, KJ/KG          520.49
 U, KJ/KG         -166.16
 G, KJ/KG        -16049.8
 S, KJ/(KG)(K)    10.6130

 M, (1/n)          18.906
 MW, MOL WT        16.463
 (dLV/dLP)t      -1.02835
 (dLV/dLT)p        1.2330
 Cp, KJ/(KG)(K)    3.0001
 GAMMAs            1.2415
 SON VEL,M/SEC      923.3

 MASS FRACTIONS

 CH4              0.01917
 *CO              0.40516
 *CO2             0.00482
 C2H2,acetylene   0.00001
 CH3CN            0.00002
 C2H4             0.00005
 C2H6             0.00001
 HCN              0.00091
 HNC              0.00002
 HNCO             0.00001
 *H2              0.04330
 HCHO,formaldehy  0.00001
 H2O              0.00833
 NH3              0.00046
 *N2              0.42346
 C(gr)            0.09426

  * THERMODYNAMIC PROPERTIES FITTED TO 20000.K

 NOTE. WEIGHT FRACTION OF FUEL IN TOTAL FUELS AND OF OXIDANT IN TOTAL OXIDANTS









         THERMODYNAMIC EQUILIBRIUM COMBUSTION PROPERTIES AT ASSIGNED

                                   PRESSURES

 CASE = MuleSimData1   

             REACTANT                    WT FRACTION      ENERGY      TEMP
                                          (SEE NOTE)     KJ/KG-MOL      K  
 OXIDANT     N2O                          1.0000000     81600.000    298.150
 FUEL        C32H66(a)                    1.0000000   -967800.000    298.150

 O/F=    2.25000  %FUEL= 30.769231  R,EQ.RATIO= 4.208432  PHI,EQ.RATIO= 4.208432

 THERMODYNAMIC PROPERTIES

 P, BAR            1.0000   2.5000   5.0000   7.5000   10.000   12.500   15.000   17.500
 T, K             1592.54  1594.41  1597.36  1600.16  1602.86  1605.45  1607.95  1610.37
 RHO, KG/CU M    1.3997-1 3.4973-1 6.9891-1 1.0476 0 1.3958 0 1.7435 0 2.0909 0 2.4379 0
 H, KJ/KG          623.07   623.07   623.07   623.07   623.07   623.07   623.07   623.07
 U, KJ/KG         -91.386  -91.760  -92.328  -92.863  -93.373  -93.859  -94.325  -94.773
 G, KJ/KG        -19369.6 -18737.9 -18277.5 -18020.3 -17845.4 -17715.3 -17613.0 -17529.7
 S, KJ/(KG)(K)    12.5540  12.1430  11.8324  11.6509  11.5222  11.4225  11.3412  11.2724

 M, (1/n)          18.533   18.545   18.565   18.584   18.602   18.619   18.636   18.652
 MW, MOL WT        16.663   16.677   16.698   16.719   16.740   16.759   16.778   16.797
 (dLV/dLP)t      -1.00045 -1.00109 -1.00211 -1.00309 -1.00403 -1.00492 -1.00577 -1.00659
 (dLV/dLT)p        1.0038   1.0088   1.0168   1.0245   1.0318   1.0387   1.0454   1.0517
 Cp, KJ/(KG)(K)    2.0481   2.0666   2.0975   2.1271   2.1551   2.1818   2.2072   2.2314
 GAMMAs            1.2825   1.2815   1.2798   1.2783   1.2768   1.2754   1.2741   1.2729
 SON VEL,M/SEC      957.2    957.1    956.9    956.6    956.4    956.2    956.0    955.9

 MASS FRACTIONS

 CH4              0.00026  0.00063  0.00124  0.00183  0.00239  0.00294  0.00347  0.00398
 *CO              0.44034  0.43998  0.43940  0.43884  0.43831  0.43780  0.43730  0.43683
 *CO2             0.00006  0.00015  0.00030  0.00044  0.00057  0.00070  0.00082  0.00094
 C2H2,acetylene   0.00001  0.00002  0.00002  0.00002  0.00002  0.00002  0.00002  0.00002
 CH3CN            0.00000  0.00000  0.00000  0.00000  0.00000  0.00000  0.00000  0.00001
 C2H4             0.00000  0.00000  0.00000  0.00001  0.00001  0.00001  0.00001  0.00001
 HCN              0.00115  0.00116  0.00118  0.00120  0.00121  0.00123  0.00125  0.00126
 HNC              0.00002  0.00002  0.00002  0.00002  0.00002  0.00002  0.00003  0.00003
 *H2              0.04527  0.04516  0.04498  0.04480  0.04463  0.04446  0.04430  0.04414
 H2O              0.00011  0.00027  0.00052  0.00076  0.00100  0.00122  0.00144  0.00165
 NH3              0.00001  0.00002  0.00003  0.00005  0.00006  0.00008  0.00009  0.00010
 *N2              0.44003  0.44002  0.43999  0.43997  0.43995  0.43993  0.43991  0.43989
 C(gr)            0.07273  0.07257  0.07231  0.07207  0.07182  0.07159  0.07136  0.07114

  * THERMODYNAMIC PROPERTIES FITTED TO 20000.K

 NOTE. WEIGHT FRACTION OF FUEL IN TOTAL FUELS AND OF OXIDANT IN TOTAL OXIDANTS









         THERMODYNAMIC EQUILIBRIUM COMBUSTION PROPERTIES AT ASSIGNED

                                   PRESSURES

 CASE = MuleSimData1   

             REACTANT                    WT FRACTION      ENERGY      TEMP
                                          (SEE NOTE)     KJ/KG-MOL      K  
 OXIDANT     N2O                          1.0000000     81600.000    298.150
 FUEL        C32H66(a)                    1.0000000   -967800.000    298.150

 O/F=    2.25000  %FUEL= 30.769231  R,EQ.RATIO= 4.208432  PHI,EQ.RATIO= 4.208432

 THERMODYNAMIC PROPERTIES

 P, BAR            20.000   22.500   25.000   27.500   30.000   32.500   35.000   37.500
 T, K             1612.71  1614.98  1617.18  1619.32  1621.39  1623.42  1625.39  1627.31
 RHO, KG/CU M    2.7845 0 3.1307 0 3.4766 0 3.8222 0 4.1675 0 4.5126 0 4.8573 0 5.2018 0
 H, KJ/KG          623.07   623.07   623.07   623.07   623.07   623.07   623.07   623.07
 U, KJ/KG         -95.203  -95.617  -96.017  -96.403  -96.777  -97.138  -97.488  -97.828
 G, KJ/KG        -17460.1 -17400.9 -17349.6 -17304.8 -17265.1 -17229.8 -17198.0 -17169.3
 S, KJ/(KG)(K)    11.2129  11.1605  11.1136  11.0713  11.0326  10.9971  10.9642  10.9336

 M, (1/n)          18.668   18.684   18.699   18.713   18.728   18.742   18.755   18.769
 MW, MOL WT        16.815   16.832   16.849   16.866   16.882   16.898   16.914   16.929
 (dLV/dLP)t      -1.00738 -1.00814 -1.00887 -1.00958 -1.01026 -1.01092 -1.01156 -1.01217
 (dLV/dLT)p        1.0578   1.0637   1.0693   1.0747   1.0799   1.0849   1.0897   1.0944
 Cp, KJ/(KG)(K)    2.2545   2.2766   2.2977   2.3180   2.3374   2.3561   2.3741   2.3914
 GAMMAs            1.2717   1.2707   1.2697   1.2687   1.2678   1.2669   1.2661   1.2653
 SON VEL,M/SEC      955.8    955.6    955.5    955.4    955.3    955.2    955.1    955.1

 MASS FRACTIONS

 CH4              0.00448  0.00496  0.00543  0.00589  0.00633  0.00677  0.00719  0.00761
 *CO              0.43637  0.43593  0.43550  0.43508  0.43468  0.43428  0.43390  0.43353
 *CO2             0.00105  0.00116  0.00127  0.00137  0.00147  0.00157  0.00167  0.00176
 C2H2,acetylene   0.00002  0.00002  0.00002  0.00002  0.00002  0.00002  0.00002  0.00002
 CH3CN            0.00001  0.00001  0.00001  0.00001  0.00001  0.00001  0.00001  0.00001
 C2H4             0.00002  0.00002  0.00002  0.00002  0.00002  0.00003  0.00003  0.00003
 HCN              0.00128  0.00130  0.00131  0.00133  0.00134  0.00135  0.00137  0.00138
 HNC              0.00003  0.00003  0.00003  0.00003  0.00003  0.00003  0.00003  0.00003
 HNCO             0.00000  0.00000  0.00000  0.00000  0.00000  0.00000  0.00000  0.00001
 *H2              0.04399  0.04385  0.04370  0.04356  0.04343  0.04330  0.04317  0.04304
 H2O              0.00185  0.00204  0.00223  0.00242  0.00259  0.00277  0.00293  0.00310
 NH3              0.00012  0.00013  0.00014  0.00016  0.00017  0.00018  0.00019  0.00021
 *N2              0.43987  0.43985  0.43983  0.43981  0.43979  0.43977  0.43975  0.43974
 C(gr)            0.07092  0.07071  0.07050  0.07030  0.07010  0.06991  0.06972  0.06954

  * THERMODYNAMIC PROPERTIES FITTED TO 20000.K

 NOTE. WEIGHT FRACTION OF FUEL IN TOTAL FUELS AND OF OXIDANT IN TOTAL OXIDANTS









         THERMODYNAMIC EQUILIBRIUM COMBUSTION PROPERTIES AT ASSIGNED

                                   PRESSURES

 CASE = MuleSimData1   

             REACTANT                    WT FRACTION      ENERGY      TEMP
                                          (SEE NOTE)     KJ/KG-MOL      K  
 OXIDANT     N2O                          1.0000000     81600.000    298.150
 FUEL        C32H66(a)                    1.0000000   -967800.000    298.150

 O/F=    2.25000  %FUEL= 30.769231  R,EQ.RATIO= 4.208432  PHI,EQ.RATIO= 4.208432

 THERMODYNAMIC PROPERTIES

 P, BAR            40.000   42.500   45.000   47.500   50.000   55.000   60.000   65.000
 T, K             1629.18  1631.01  1632.80  1634.55  1636.26  1639.57  1642.75  1645.81
 RHO, KG/CU M    5.5461 0 5.8901 0 6.2339 0 6.5775 0 6.9208 0 7.6069 0 8.2923 0 8.9769 0
 H, KJ/KG          623.07   623.07   623.07   623.07   623.07   623.07   623.07   623.07
 U, KJ/KG         -98.158  -98.478  -98.790  -99.093  -99.388  -99.956  -100.50  -101.01
 G, KJ/KG        -17143.3 -17119.5 -17097.6 -17077.5 -17059.0 -17025.8 -16997.0 -16971.8
 S, KJ/(KG)(K)    10.9051  10.8782  10.8530  10.8291  10.8064  10.7643  10.7260  10.6908

 M, (1/n)          18.782   18.794   18.807   18.819   18.831   18.854   18.877   18.899
 MW, MOL WT        16.944   16.959   16.973   16.987   17.001   17.028   17.054   17.079
 (dLV/dLP)t      -1.01277 -1.01335 -1.01392 -1.01446 -1.01500 -1.01602 -1.01699 -1.01792
 (dLV/dLT)p        1.0989   1.1033   1.1075   1.1116   1.1156   1.1232   1.1305   1.1373
 Cp, KJ/(KG)(K)    2.4082   2.4243   2.4399   2.4549   2.4695   2.4973   2.5235   2.5481
 GAMMAs            1.2646   1.2639   1.2632   1.2625   1.2619   1.2607   1.2595   1.2585
 SON VEL,M/SEC      955.0    955.0    954.9    954.8    954.8    954.7    954.7    954.6

 MASS FRACTIONS

 CH4              0.00801  0.00841  0.00880  0.00918  0.00955  0.01027  0.01096  0.01163
 *CO              0.43317  0.43282  0.43247  0.43214  0.43181  0.43117  0.43056  0.42998
 *CO2             0.00185  0.00194  0.00202  0.00210  0.00218  0.00234  0.00249  0.00264
 C2H2,acetylene   0.00002  0.00002  0.00002  0.00002  0.00002  0.00002  0.00002  0.00002
 CH3CN            0.00001  0.00001  0.00001  0.00002  0.00002  0.00002  0.00002  0.00002
 C2H4             0.00003  0.00003  0.00003  0.00004  0.00004  0.00004  0.00005  0.00005
 HCN              0.00139  0.00141  0.00142  0.00143  0.00145  0.00147  0.00149  0.00152
 HNC              0.00003  0.00003  0.00003  0.00003  0.00003  0.00003  0.00003  0.00003
 HNCO             0.00001  0.00001  0.00001  0.00001  0.00001  0.00001  0.00001  0.00001
 *H2              0.04292  0.04280  0.04268  0.04257  0.04246  0.04224  0.04203  0.04182
 HCHO,formaldehy  0.00000  0.00000  0.00000  0.00000  0.00000  0.00000  0.00000  0.00001
 H2O              0.00326  0.00341  0.00356  0.00371  0.00385  0.00413  0.00440  0.00466
 NH3              0.00022  0.00023  0.00024  0.00025  0.00026  0.00028  0.00031  0.00033
 *N2              0.43972  0.43970  0.43969  0.43967  0.43965  0.43962  0.43959  0.43956
 C(gr)            0.06935  0.06918  0.06900  0.06883  0.06866  0.06833  0.06802  0.06771

  * THERMODYNAMIC PROPERTIES FITTED TO 20000.K

 NOTE. WEIGHT FRACTION OF FUEL IN TOTAL FUELS AND OF OXIDANT IN TOTAL OXIDANTS









         THERMODYNAMIC EQUILIBRIUM COMBUSTION PROPERTIES AT ASSIGNED

                                   PRESSURES

 CASE = MuleSimData1   

             REACTANT                    WT FRACTION      ENERGY      TEMP
                                          (SEE NOTE)     KJ/KG-MOL      K  
 OXIDANT     N2O                          1.0000000     81600.000    298.150
 FUEL        C32H66(a)                    1.0000000   -967800.000    298.150

 O/F=    2.25000  %FUEL= 30.769231  R,EQ.RATIO= 4.208432  PHI,EQ.RATIO= 4.208432

 THERMODYNAMIC PROPERTIES

 P, BAR            70.000
 T, K             1648.75
 RHO, KG/CU M    9.6608 0
 H, KJ/KG          623.07
 U, KJ/KG         -101.50
 G, KJ/KG        -16949.6
 S, KJ/(KG)(K)    10.6582

 M, (1/n)          18.919
 MW, MOL WT        17.103
 (dLV/dLP)t      -1.01880
 (dLV/dLT)p        1.1438
 Cp, KJ/(KG)(K)    2.5714
 GAMMAs            1.2575
 SON VEL,M/SEC      954.5

 MASS FRACTIONS

 CH4              0.01228
 *CO              0.42942
 *CO2             0.00277
 C2H2,acetylene   0.00002
 CH3CN            0.00002
 C2H4             0.00005
 HCN              0.00154
 HNC              0.00003
 HNCO             0.00001
 *H2              0.04163
 HCHO,formaldehy  0.00001
 H2O              0.00490
 NH3              0.00035
 *N2              0.43953
 C(gr)            0.06741

  * THERMODYNAMIC PROPERTIES FITTED TO 20000.K

 NOTE. WEIGHT FRACTION OF FUEL IN TOTAL FUELS AND OF OXIDANT IN TOTAL OXIDANTS









         THERMODYNAMIC EQUILIBRIUM COMBUSTION PROPERTIES AT ASSIGNED

                                   PRESSURES

 CASE = MuleSimData1   

             REACTANT                    WT FRACTION      ENERGY      TEMP
                                          (SEE NOTE)     KJ/KG-MOL      K  
 OXIDANT     N2O                          1.0000000     81600.000    298.150
 FUEL        C32H66(a)                    1.0000000   -967800.000    298.150

 O/F=    2.50000  %FUEL= 28.571429  R,EQ.RATIO= 3.787589  PHI,EQ.RATIO= 3.787589

 THERMODYNAMIC PROPERTIES

 P, BAR            1.0000   2.5000   5.0000   7.5000   10.000   12.500   15.000   17.500
 T, K             1701.03  1702.22  1703.95  1705.59  1707.17  1708.72  1710.23  1711.70
 RHO, KG/CU M    1.3251-1 3.3116-1 6.6205-1 9.9271-1 1.3231 0 1.6534 0 1.9834 0 2.3132 0
 H, KJ/KG          710.99   710.99   710.99   710.99   710.99   710.99   710.99   710.99
 U, KJ/KG         -43.681  -43.924  -44.234  -44.516  -44.784  -45.042  -45.293  -45.537
 G, KJ/KG        -20666.5 -19989.7 -19487.0 -19200.0 -19001.0 -18850.1 -18729.4 -18629.6
 S, KJ/(KG)(K)    12.5674  12.1610  11.8536  11.6740  11.5466  11.4478  11.3672  11.2990

 M, (1/n)          18.741   18.748   18.759   18.770   18.781   18.792   18.802   18.812
 MW, MOL WT        17.446   17.454   17.468   17.482   17.496   17.509   17.522   17.534
 (dLV/dLP)t      -1.00027 -1.00062 -1.00121 -1.00178 -1.00233 -1.00288 -1.00341 -1.00392
 (dLV/dLT)p        1.0025   1.0049   1.0090   1.0131   1.0171   1.0210   1.0248   1.0286
 Cp, KJ/(KG)(K)    2.0228   2.0286   2.0422   2.0564   2.0704   2.0842   2.0976   2.1108
 GAMMAs            1.2823   1.2823   1.2817   1.2809   1.2802   1.2795   1.2788   1.2781
 SON VEL,M/SEC      983.7    983.9    983.8    983.7    983.6    983.5    983.4    983.3

 MASS FRACTIONS

 CH4              0.00014  0.00036  0.00071  0.00106  0.00139  0.00173  0.00205  0.00237
 *CO              0.45445  0.45427  0.45397  0.45367  0.45339  0.45310  0.45283  0.45256
 *CO2             0.00003  0.00008  0.00015  0.00022  0.00029  0.00036  0.00043  0.00049
 C2H2,acetylene   0.00004  0.00004  0.00004  0.00004  0.00004  0.00004  0.00004  0.00004
 CH3CN            0.00000  0.00000  0.00000  0.00000  0.00000  0.00000  0.00001  0.00001
 C2H4             0.00000  0.00000  0.00000  0.00001  0.00001  0.00001  0.00001  0.00001
 *H               0.00001  0.00000  0.00000  0.00000  0.00000  0.00000  0.00000  0.00000
 HCN              0.00210  0.00211  0.00213  0.00214  0.00216  0.00218  0.00219  0.00220
 HNC              0.00005  0.00006  0.00006  0.00006  0.00006  0.00006  0.00006  0.00006
 *H2              0.04202  0.04196  0.04186  0.04175  0.04165  0.04155  0.04145  0.04136
 H2O              0.00005  0.00014  0.00027  0.00040  0.00053  0.00065  0.00077  0.00089
 NH3              0.00000  0.00001  0.00002  0.00003  0.00004  0.00005  0.00006  0.00007
 *N2              0.45351  0.45350  0.45348  0.45346  0.45344  0.45343  0.45341  0.45339
 C(gr)            0.04758  0.04747  0.04731  0.04715  0.04699  0.04683  0.04668  0.04653

  * THERMODYNAMIC PROPERTIES FITTED TO 20000.K

 NOTE. WEIGHT FRACTION OF FUEL IN TOTAL FUELS AND OF OXIDANT IN TOTAL OXIDANTS









         THERMODYNAMIC EQUILIBRIUM COMBUSTION PROPERTIES AT ASSIGNED

                                   PRESSURES

 CASE = MuleSimData1   

             REACTANT                    WT FRACTION      ENERGY      TEMP
                                          (SEE NOTE)     KJ/KG-MOL      K  
 OXIDANT     N2O                          1.0000000     81600.000    298.150
 FUEL        C32H66(a)                    1.0000000   -967800.000    298.150

 O/F=    2.50000  %FUEL= 28.571429  R,EQ.RATIO= 3.787589  PHI,EQ.RATIO= 3.787589

 THERMODYNAMIC PROPERTIES

 P, BAR            20.000   22.500   25.000   27.500   30.000   32.500   35.000   37.500
 T, K             1713.15  1714.57  1715.96  1717.33  1718.67  1719.99  1721.29  1722.56
 RHO, KG/CU M    2.6428 0 2.9723 0 3.3015 0 3.6306 0 3.9595 0 4.2883 0 4.6169 0 4.9454 0
 H, KJ/KG          710.99   710.99   710.99   710.99   710.99   710.99   710.99   710.99
 U, KJ/KG         -45.774  -46.006  -46.232  -46.453  -46.669  -46.881  -47.088  -47.291
 G, KJ/KG        -18544.9 -18471.6 -18407.4 -18350.4 -18299.4 -18253.3 -18211.4 -18173.1
 S, KJ/(KG)(K)    11.2400  11.1880  11.1415  11.0995  11.0611  11.0258  10.9932  10.9628

 M, (1/n)          18.822   18.832   18.842   18.851   18.860   18.870   18.879   18.888
 MW, MOL WT        17.547   17.559   17.571   17.583   17.595   17.606   17.618   17.629
 (dLV/dLP)t      -1.00443 -1.00492 -1.00540 -1.00587 -1.00633 -1.00678 -1.00722 -1.00765
 (dLV/dLT)p        1.0322   1.0357   1.0391   1.0425   1.0458   1.0490   1.0521   1.0552
 Cp, KJ/(KG)(K)    2.1236   2.1360   2.1482   2.1600   2.1716   2.1829   2.1939   2.2046
 GAMMAs            1.2774   1.2768   1.2762   1.2756   1.2750   1.2744   1.2739   1.2733
[...]
 MW, MOL WT        29.029   29.089   29.127   29.146   29.159   29.168   29.174   29.180
 (dLV/dLP)t      -1.00367 -1.00275 -1.00219 -1.00191 -1.00173 -1.00160 -1.00150 -1.00142
 (dLV/dLT)p        1.0953   1.0711   1.0563   1.0490   1.0443   1.0409   1.0384   1.0363
 Cp, KJ/(KG)(K)    2.1777   1.9986   1.8907   1.8374   1.8036   1.7794   1.7610   1.7462
 GAMMAs            1.1822   1.1923   1.1994   1.2033   1.2058   1.2077   1.2092   1.2104
 SON VEL,M/SEC      919.1    926.9    932.0    934.7    936.5    937.8    938.8    939.6

 MASS FRACTIONS

 *CO              0.00362  0.00267  0.00208  0.00178  0.00159  0.00145  0.00135  0.00127
 *CO2             0.07545  0.07693  0.07786  0.07833  0.07863  0.07885  0.07901  0.07914
 *H               0.00002  0.00001  0.00001  0.00001  0.00001  0.00000  0.00000  0.00000
 HO2              0.00001  0.00002  0.00002  0.00002  0.00003  0.00003  0.00003  0.00003
 *H2              0.00004  0.00003  0.00002  0.00002  0.00002  0.00002  0.00002  0.00001
 H2O              0.03023  0.03085  0.03128  0.03151  0.03167  0.03179  0.03188  0.03196
 *NO              0.02186  0.02288  0.02353  0.02387  0.02408  0.02424  0.02436  0.02446
 NO2              0.00003  0.00005  0.00007  0.00009  0.00010  0.00012  0.00013  0.00014
 *N2              0.60973  0.60925  0.60894  0.60878  0.60867  0.60860  0.60853  0.60849
 N2O              0.00000  0.00000  0.00000  0.00000  0.00001  0.00001  0.00001  0.00001
 *O               0.00370  0.00265  0.00203  0.00172  0.00153  0.00139  0.00129  0.00121
 *OH              0.00654  0.00569  0.00506  0.00470  0.00446  0.00427  0.00412  0.00400
 *O2              0.24877  0.24895  0.24908  0.24915  0.24920  0.24923  0.24926  0.24928

  * THERMODYNAMIC PROPERTIES FITTED TO 20000.K

 NOTE. WEIGHT FRACTION OF FUEL IN TOTAL FUELS AND OF OXIDANT IN TOTAL OXIDANTS









         THERMODYNAMIC EQUILIBRIUM COMBUSTION PROPERTIES AT ASSIGNED

                                   PRESSURES

 CASE = MuleSimData1   

             REACTANT                    WT FRACTION      ENERGY      TEMP
                                          (SEE NOTE)     KJ/KG-MOL      K  
 OXIDANT     N2O                          1.0000000     81600.000    298.150
 FUEL        C32H66(a)                    1.0000000   -967800.000    298.150

 O/F=   37.50000  %FUEL=  2.597403  R,EQ.RATIO= 0.252506  PHI,EQ.RATIO= 0.252506

 THERMODYNAMIC PROPERTIES

 P, BAR            20.000   22.500   25.000   27.500   30.000   32.500   35.000   37.500
 T, K             2562.05  2563.74  2565.20  2566.48  2567.61  2568.63  2569.55  2570.39
 RHO, KG/CU M    2.7401 0 3.0810 0 3.4217 0 3.7624 0 4.1030 0 4.4435 0 4.7840 0 5.1244 0
 H, KJ/KG         1750.10  1750.10  1750.10  1750.10  1750.10  1750.10  1750.10  1750.10
 U, KJ/KG         1020.18  1019.80  1019.47  1019.18  1018.93  1018.70  1018.49  1018.30
 G, KJ/KG        -20513.8 -20442.4 -20378.1 -20319.4 -20265.6 -20215.8 -20169.4 -20126.1
 S, KJ/(KG)(K)     8.6899   8.6563   8.6263   8.5992   8.5744   8.5516   8.5305   8.5108

 M, (1/n)          29.185   29.189   29.192   29.195   29.198   29.200   29.202   29.204
 MW, MOL WT        29.185   29.189   29.192   29.195   29.198   29.200   29.202   29.204
 (dLV/dLP)t      -1.00136 -1.00131 -1.00126 -1.00122 -1.00119 -1.00115 -1.00113 -1.00110
 (dLV/dLT)p        1.0346   1.0332   1.0320   1.0309   1.0299   1.0291   1.0283   1.0276
 Cp, KJ/(KG)(K)    1.7341   1.7238   1.7150   1.7072   1.7004   1.6943   1.6888   1.6838
 GAMMAs            1.2114   1.2123   1.2130   1.2137   1.2143   1.2148   1.2153   1.2157
 SON VEL,M/SEC      940.3    940.9    941.4    941.9    942.3    942.6    942.9    943.2

 MASS FRACTIONS

 *CO              0.00120  0.00114  0.00109  0.00105  0.00101  0.00098  0.00095  0.00092
 *CO2             0.07925  0.07934  0.07942  0.07948  0.07954  0.07960  0.07965  0.07969
 HNO2             0.00000  0.00000  0.00000  0.00000  0.00000  0.00001  0.00001  0.00001
 HO2              0.00003  0.00003  0.00003  0.00003  0.00004  0.00004  0.00004  0.00004
 *H2              0.00001  0.00001  0.00001  0.00001  0.00001  0.00001  0.00001  0.00001
 H2O              0.03202  0.03208  0.03213  0.03217  0.03221  0.03225  0.03228  0.03231
 *NO              0.02454  0.02461  0.02467  0.02472  0.02477  0.02481  0.02485  0.02488
 NO2              0.00015  0.00016  0.00017  0.00017  0.00018  0.00019  0.00020  0.00020
 *N2              0.60844  0.60841  0.60838  0.60835  0.60833  0.60830  0.60828  0.60826
 N2O              0.00001  0.00001  0.00001  0.00001  0.00001  0.00001  0.00001  0.00001
 *O               0.00114  0.00108  0.00104  0.00099  0.00096  0.00092  0.00089  0.00087
 *OH              0.00390  0.00381  0.00372  0.00365  0.00359  0.00353  0.00348  0.00343
 *O2              0.24930  0.24931  0.24933  0.24934  0.24935  0.24936  0.24936  0.24937

  * THERMODYNAMIC PROPERTIES FITTED TO 20000.K

 NOTE. WEIGHT FRACTION OF FUEL IN TOTAL FUELS AND OF OXIDANT IN TOTAL OXIDANTS









         THERMODYNAMIC EQUILIBRIUM COMBUSTION PROPERTIES AT ASSIGNED

                                   PRESSURES

 CASE = MuleSimData1   

             REACTANT                    WT FRACTION      ENERGY      TEMP
                                          (SEE NOTE)     KJ/KG-MOL      K  
 OXIDANT     N2O                          1.0000000     81600.000    298.150
 FUEL        C32H66(a)                    1.0000000   -967800.000    298.150

 O/F=   37.50000  %FUEL=  2.597403  R,EQ.RATIO= 0.252506  PHI,EQ.RATIO= 0.252506

 THERMODYNAMIC PROPERTIES

 P, BAR            40.000   42.500   45.000   47.500   50.000   55.000   60.000   65.000
 T, K             2571.15  2571.86  2572.51  2573.12  2573.69  2574.71  2575.63  2576.44
 RHO, KG/CU M    5.4647 0 5.8050 0 6.1452 0 6.4854 0 6.8256 0 7.5058 0 8.1858 0 8.8658 0
 H, KJ/KG         1750.10  1750.10  1750.10  1750.10  1750.10  1750.10  1750.10  1750.10
 U, KJ/KG         1018.13  1017.97  1017.82  1017.68  1017.56  1017.33  1017.12  1016.94
 G, KJ/KG        -20085.3 -20047.0 -20010.6 -19976.2 -19943.4 -19882.2 -19826.1 -19774.2
 S, KJ/(KG)(K)     8.4925   8.4752   8.4589   8.4436   8.4290   8.4018   8.3771   8.3543

 M, (1/n)          29.206   29.208   29.209   29.211   29.212   29.214   29.217   29.219
 MW, MOL WT        29.206   29.208   29.209   29.211   29.212   29.214   29.217   29.219
 (dLV/dLP)t      -1.00108 -1.00105 -1.00104 -1.00102 -1.00100 -1.00097 -1.00094 -1.00092
 (dLV/dLT)p        1.0270   1.0264   1.0259   1.0253   1.0249   1.0240   1.0233   1.0226
 Cp, KJ/(KG)(K)    1.6793   1.6751   1.6712   1.6677   1.6643   1.6583   1.6529   1.6482
 GAMMAs            1.2161   1.2165   1.2169   1.2172   1.2175   1.2180   1.2185   1.2190
 SON VEL,M/SEC      943.5    943.7    944.0    944.2    944.4    944.7    945.1    945.4

 MASS FRACTIONS

 *CO              0.00089  0.00087  0.00085  0.00083  0.00081  0.00078  0.00075  0.00072
 *CO2             0.07973  0.07977  0.07980  0.07983  0.07986  0.07991  0.07996  0.08000
 HNO2             0.00001  0.00001  0.00001  0.00001  0.00001  0.00001  0.00001  0.00001
 HO2              0.00004  0.00004  0.00004  0.00004  0.00004  0.00004  0.00004  0.00004
 *H2              0.00001  0.00001  0.00001  0.00001  0.00001  0.00001  0.00001  0.00001
 H2O              0.03234  0.03236  0.03239  0.03241  0.03243  0.03247  0.03250  0.03253
 *NO              0.02492  0.02494  0.02497  0.02500  0.02502  0.02506  0.02510  0.02513
 NO2              0.00021  0.00022  0.00022  0.00023  0.00024  0.00025  0.00026  0.00027
 *N2              0.60825  0.60823  0.60822  0.60820  0.60819  0.60817  0.60814  0.60812
 N2O              0.00001  0.00001  0.00001  0.00001  0.00001  0.00001  0.00001  0.00001
 *O               0.00084  0.00082  0.00080  0.00078  0.00076  0.00073  0.00070  0.00068
 *OH              0.00338  0.00334  0.00330  0.00326  0.00323  0.00316  0.00310  0.00305
 *O2              0.24938  0.24938  0.24939  0.24939  0.24940  0.24940  0.24941  0.24941

  * THERMODYNAMIC PROPERTIES FITTED TO 20000.K

 NOTE. WEIGHT FRACTION OF FUEL IN TOTAL FUELS AND OF OXIDANT IN TOTAL OXIDANTS









         THERMODYNAMIC EQUILIBRIUM COMBUSTION PROPERTIES AT ASSIGNED

                                   PRESSURES

 CASE = MuleSimData1   

             REACTANT                    WT FRACTION      ENERGY      TEMP
                                          (SEE NOTE)     KJ/KG-MOL      K  
 OXIDANT     N2O                          1.0000000     81600.000    298.150
 FUEL        C32H66(a)                    1.0000000   -967800.000    298.150

 O/F=   37.50000  %FUEL=  2.597403  R,EQ.RATIO= 0.252506  PHI,EQ.RATIO= 0.252506

 THERMODYNAMIC PROPERTIES

 P, BAR            70.000
 T, K             2577.18
 RHO, KG/CU M    9.5456 0
 H, KJ/KG         1750.10
 U, KJ/KG         1016.77
 G, KJ/KG        -19726.0
 S, KJ/(KG)(K)     8.3332

 M, (1/n)          29.220
 MW, MOL WT        29.220
 (dLV/dLP)t      -1.00090
 (dLV/dLT)p        1.0220
 Cp, KJ/(KG)(K)    1.6439
 GAMMAs            1.2194
 SON VEL,M/SEC      945.6

 MASS FRACTIONS

 *CO              0.00070
 *CO2             0.08004
 HNO2             0.00001
 HO2              0.00005
 *H2              0.00001
 H2O              0.03256
 *NO              0.02516
 NO2              0.00028
 *N2              0.60811
 N2O              0.00002
 *O               0.00065
 *OH              0.00300
 *O2              0.24942

  * THERMODYNAMIC PROPERTIES FITTED TO 20000.K

 NOTE. WEIGHT FRACTION OF FUEL IN TOTAL FUELS AND OF OXIDANT IN TOTAL OXIDANTS









         THERMODYNAMIC EQUILIBRIUM COMBUSTION PROPERTIES AT ASSIGNED

                                   PRESSURES

 CASE = MuleSimData1   

             REACTANT                    WT FRACTION      ENERGY      TEMP
                                          (SEE NOTE)     KJ/KG-MOL      K  
 OXIDANT     N2O                          1.0000000     81600.000    298.150
 FUEL        C32H66(a)                    1.0000000   -967800.000    298.150

 O/F=   50.00000  %FUEL=  1.960784  R,EQ.RATIO= 0.189379  PHI,EQ.RATIO= 0.189379

 THERMODYNAMIC PROPERTIES

 P, BAR            1.0000   2.5000   5.0000   7.5000   10.000   12.500   15.000   17.500
 T, K             2383.14  2399.03  2408.55  2413.24  2416.22  2418.35  2419.98  2421.28
 RHO, KG/CU M    1.4716-1 3.6592-1 7.2948-1 1.0925 0 1.4552 0 1.8177 0 2.1800 0 2.5423 0
 H, KJ/KG         1775.56  1775.56  1775.56  1775.56  1775.56  1775.56  1775.56  1775.56
 U, KJ/KG         1096.04  1092.35  1090.14  1089.06  1088.37  1087.88  1087.50  1087.20
 G, KJ/KG        -20645.2 -20168.3 -19780.0 -19543.6 -19372.3 -19237.4 -19126.1 -19031.2
 S, KJ/(KG)(K)     9.4081   9.1470   8.9496   8.8343   8.7524   8.6890   8.6371   8.5933

 M, (1/n)          29.159   29.195   29.217   29.228   29.234   29.239   29.243   29.246
 MW, MOL WT        29.159   29.195   29.217   29.228   29.234   29.239   29.243   29.246
 (dLV/dLP)t      -1.00196 -1.00142 -1.00111 -1.00096 -1.00087 -1.00080 -1.00075 -1.00071
 (dLV/dLT)p        1.0535   1.0387   1.0301   1.0260   1.0234   1.0216   1.0202   1.0190
 Cp, KJ/(KG)(K)    1.8547   1.7418   1.6767   1.6453   1.6256   1.6117   1.6012   1.5928
 GAMMAs            1.2029   1.2121   1.2180   1.2211   1.2230   1.2245   1.2256   1.2265
 SON VEL,M/SEC      904.1    910.0    913.7    915.6    916.8    917.6    918.3    918.8

 MASS FRACTIONS

 *CO              0.00144  0.00101  0.00076  0.00064  0.00056  0.00051  0.00047  0.00044
 *CO2             0.05899  0.05966  0.06006  0.06025  0.06036  0.06045  0.06051  0.06056
 *H               0.00001  0.00000  0.00000  0.00000  0.00000  0.00000  0.00000  0.00000
 HO2              0.00001  0.00001  0.00001  0.00002  0.00002  0.00002  0.00002  0.00002
 *H2              0.00002  0.00001  0.00001  0.00001  0.00001  0.00001  0.00001  0.00001
 H2O              0.02345  0.02386  0.02413  0.02428  0.02438  0.02445  0.02451  0.02455
 *NO              0.01881  0.01940  0.01976  0.01994  0.02005  0.02014  0.02020  0.02025
 NO2              0.00003  0.00005  0.00007  0.00009  0.00010  0.00012  0.00013  0.00014
 *N2              0.61521  0.61493  0.61475  0.61466  0.61461  0.61456  0.61453  0.61450
 N2O              0.00000  0.00000  0.00000  0.00000  0.00000  0.00001  0.00001  0.00001
 *O               0.00218  0.00150  0.00112  0.00093  0.00082  0.00074  0.00068  0.00064
 *OH              0.00411  0.00348  0.00304  0.00280  0.00263  0.00251  0.00242  0.00234
 *O2              0.27575  0.27608  0.27628  0.27638  0.27644  0.27649  0.27652  0.27655

  * THERMODYNAMIC PROPERTIES FITTED TO 20000.K

 NOTE. WEIGHT FRACTION OF FUEL IN TOTAL FUELS AND OF OXIDANT IN TOTAL OXIDANTS









         THERMODYNAMIC EQUILIBRIUM COMBUSTION PROPERTIES AT ASSIGNED

                                   PRESSURES

 CASE = MuleSimData1   

             REACTANT                    WT FRACTION      ENERGY      TEMP
                                          (SEE NOTE)     KJ/KG-MOL      K  
 OXIDANT     N2O                          1.0000000     81600.000    298.150
 FUEL        C32H66(a)                    1.0000000   -967800.000    298.150

 O/F=   50.00000  %FUEL=  1.960784  R,EQ.RATIO= 0.189379  PHI,EQ.RATIO= 0.189379

 THERMODYNAMIC PROPERTIES

 P, BAR            20.000   22.500   25.000   27.500   30.000   32.500   35.000   37.500
 T, K             2422.35  2423.26  2424.05  2424.73  2425.34  2425.88  2426.37  2426.82
 RHO, KG/CU M    2.9044 0 3.2665 0 3.6285 0 3.9904 0 4.3523 0 4.7141 0 5.0759 0 5.4377 0
 H, KJ/KG         1775.56  1775.56  1775.56  1775.56  1775.56  1775.56  1775.56  1775.56
 U, KJ/KG         1086.95  1086.75  1086.57  1086.41  1086.27  1086.15  1086.03  1085.93
 G, KJ/KG        -18948.5 -18875.2 -18809.3 -18749.4 -18694.5 -18643.9 -18597.0 -18553.1
 S, KJ/(KG)(K)     8.5553   8.5219   8.4919   8.4648   8.4401   8.4174   8.3963   8.3767

 M, (1/n)          29.248   29.250   29.252   29.254   29.255   29.257   29.258   29.259
 MW, MOL WT        29.248   29.250   29.252   29.254   29.255   29.257   29.258   29.259
 (dLV/dLP)t      -1.00068 -1.00066 -1.00063 -1.00061 -1.00060 -1.00058 -1.00057 -1.00056
 (dLV/dLT)p        1.0181   1.0174   1.0167   1.0161   1.0156   1.0152   1.0148   1.0144
 Cp, KJ/(KG)(K)    1.5859   1.5801   1.5751   1.5708   1.5670   1.5636   1.5605   1.5577
 GAMMAs            1.2272   1.2278   1.2283   1.2288   1.2292   1.2296   1.2299   1.2303
 SON VEL,M/SEC      919.3    919.6    920.0    920.2    920.5    920.7    920.9    921.1

 MASS FRACTIONS

 *CO              0.00041  0.00039  0.00037  0.00036  0.00034  0.00033  0.00032  0.00031
 *CO2             0.06060  0.06063  0.06066  0.06069  0.06071  0.06073  0.06074  0.06076
 HO2              0.00002  0.00002  0.00002  0.00002  0.00002  0.00002  0.00002  0.00002
 H2O              0.02459  0.02463  0.02465  0.02468  0.02470  0.02472  0.02474  0.02476
 *NO              0.02029  0.02032  0.02035  0.02038  0.02040  0.02042  0.02044  0.02046
 NO2              0.00015  0.00016  0.00017  0.00017  0.00018  0.00019  0.00020  0.00020
 *N2              0.61448  0.61446  0.61445  0.61443  0.61442  0.61440  0.61439  0.61438
 N2O              0.00001  0.00001  0.00001  0.00001  0.00001  0.00001  0.00001  0.00001
 *O               0.00060  0.00057  0.00054  0.00052  0.00050  0.00048  0.00046  0.00045
 *OH              0.00227  0.00221  0.00216  0.00212  0.00208  0.00204  0.00201  0.00197
 *O2              0.27657  0.27659  0.27660  0.27662  0.27663  0.27664  0.27665  0.27666

  * THERMODYNAMIC PROPERTIES FITTED TO 20000.K

 NOTE. WEIGHT FRACTION OF FUEL IN TOTAL FUELS AND OF OXIDANT IN TOTAL OXIDANTS









         THERMODYNAMIC EQUILIBRIUM COMBUSTION PROPERTIES AT ASSIGNED

                                   PRESSURES

 CASE = MuleSimData1   

             REACTANT                    WT FRACTION      ENERGY      TEMP
                                          (SEE NOTE)     KJ/KG-MOL      K  
 OXIDANT     N2O                          1.0000000     81600.000    298.150
 FUEL        C32H66(a)                    1.0000000   -967800.000    298.150

 O/F=   50.00000  %FUEL=  1.960784  R,EQ.RATIO= 0.189379  PHI,EQ.RATIO= 0.189379

 THERMODYNAMIC PROPERTIES

 P, BAR            40.000   42.500   45.000   47.500   50.000   55.000   60.000   65.000
 T, K             2427.22  2427.60  2427.94  2428.26  2428.56  2429.10  2429.58  2430.01
 RHO, KG/CU M    5.7994 0 6.1611 0 6.5228 0 6.8844 0 7.2461 0 7.9693 0 8.6924 0 9.4154 0
 H, KJ/KG         1775.56  1775.56  1775.56  1775.56  1775.56  1775.56  1775.56  1775.56
 U, KJ/KG         1085.84  1085.75  1085.68  1085.60  1085.54  1085.41  1085.30  1085.21
 G, KJ/KG        -18512.0 -18473.3 -18436.8 -18402.1 -18369.2 -18307.9 -18251.8 -18200.1
 S, KJ/(KG)(K)     8.3583   8.3411   8.3249   8.3095   8.2949   8.2679   8.2431   8.2204

 M, (1/n)          29.260   29.261   29.261   29.262   29.263   29.264   29.265   29.267
 MW, MOL WT        29.260   29.261   29.261   29.262   29.263   29.264   29.265   29.267
 (dLV/dLP)t      -1.00054 -1.00053 -1.00053 -1.00052 -1.00051 -1.00050 -1.00048 -1.00047
 (dLV/dLT)p        1.0140   1.0137   1.0135   1.0132   1.0129   1.0125   1.0121   1.0117
 Cp, KJ/(KG)(K)    1.5552   1.5528   1.5507   1.5487   1.5469   1.5435   1.5406   1.5379
 GAMMAs            1.2305   1.2308   1.2310   1.2313   1.2315   1.2318   1.2322   1.2325
 SON VEL,M/SEC      921.3    921.4    921.6    921.7    921.8    922.0    922.2    922.4

 MASS FRACTIONS

 *CO              0.00030  0.00029  0.00028  0.00028  0.00027  0.00026  0.00025  0.00024
 *CO2             0.06077  0.06079  0.06080  0.06081  0.06082  0.06084  0.06085  0.06087
 HNO2             0.00000  0.00001  0.00001  0.00001  0.00001  0.00001  0.00001  0.00001
 HO2              0.00003  0.00003  0.00003  0.00003  0.00003  0.00003  0.00003  0.00003
 H2O              0.02478  0.02479  0.02481  0.02482  0.02483  0.02485  0.02487  0.02489
 *NO              0.02048  0.02049  0.02050  0.02052  0.02053  0.02055  0.02057  0.02058
 NO2              0.00021  0.00022  0.00022  0.00023  0.00024  0.00025  0.00026  0.00027
 *N2              0.61437  0.61436  0.61436  0.61435  0.61434  0.61433  0.61431  0.61430
 N2O              0.00001  0.00001  0.00001  0.00001  0.00001  0.00001  0.00001  0.00001
 *O               0.00044  0.00042  0.00041  0.00040  0.00039  0.00037  0.00036  0.00035
 *OH              0.00195  0.00192  0.00190  0.00187  0.00185  0.00181  0.00178  0.00174
 *O2              0.27666  0.27667  0.27667  0.27668  0.27668  0.27669  0.27670  0.27670

  * THERMODYNAMIC PROPERTIES FITTED TO 20000.K

 NOTE. WEIGHT FRACTION OF FUEL IN TOTAL FUELS AND OF OXIDANT IN TOTAL OXIDANTS









         THERMODYNAMIC EQUILIBRIUM COMBUSTION PROPERTIES AT ASSIGNED

                                   PRESSURES

 CASE = MuleSimData1   

             REACTANT                    WT FRACTION      ENERGY      TEMP
                                          (SEE NOTE)     KJ/KG-MOL      K  
 OXIDANT     N2O                          1.0000000     81600.000    298.150
 FUEL        C32H66(a)                    1.0000000   -967800.000    298.150

 O/F=   50.00000  %FUEL=  1.960784  R,EQ.RATIO= 0.189379  PHI,EQ.RATIO= 0.189379

 THERMODYNAMIC PROPERTIES

 P, BAR            70.000
 T, K             2430.39
 RHO, KG/CU M    1.0138 1
 H, KJ/KG         1775.56
 U, KJ/KG         1085.12
 G, KJ/KG        -18152.1
 S, KJ/(KG)(K)     8.1993

 M, (1/n)          29.268
 MW, MOL WT        29.268
 (dLV/dLP)t      -1.00046
 (dLV/dLT)p        1.0114
 Cp, KJ/(KG)(K)    1.5356
 GAMMAs            1.2327
 SON VEL,M/SEC      922.6

 MASS FRACTIONS

 *CO              0.00023
 *CO2             0.06088
 HNO2             0.00001
 HO2              0.00003
 H2O              0.02491
 *NO              0.02060
 NO2              0.00028
 *N2              0.61429
 N2O              0.00001
 *O               0.00033
 *OH              0.00171
 *O2              0.27671

  * THERMODYNAMIC PROPERTIES FITTED TO 20000.K

 NOTE. WEIGHT FRACTION OF FUEL IN TOTAL FUELS AND OF OXIDANT IN TOTAL OXIDANTS



