
 *******************************************************************************

         NASA-GLENN CHEMICAL EQUILIBRIUM PROGRAM CEA2, MAY 21, 2004
                   BY  BONNIE MCBRIDE AND SANFORD GORDON
      REFS: NASA RP-1311, PART I, 1994 AND NASA RP-1311, PART II, 1996

 *******************************************************************************



  
 !     USER MANUAL FOR CEA CAN BE FOUND HERE:
 !          https://www.grc.nasa.gov/www/CEAWeb/RP-1311-P2.pdf
 !
 !  MULESIM DATA:
 !     (a)  Combustion or assigned-enthalpy-and-pressure problem (hp).
 !     (b)  Fuels are 'C32H66(a)' or paraffin at 298.15 K. The oxidant is
 !          'N2O(L),298.15K' at 298.15 K. Feel free to add any additional fuels.
 !     (c)  Oxidant-to-fuel weight ratios from 0.5 to 30 are defined.  Weight
 !          fractions are fractions of fuel relative to total fuel and fractions
 !          of oxidant relative to total oxidant. Make sure to update the wtfrac
 !          value if you add more fuels.
 !     (d)  Assigned pressures range from 1-70 bar in steps of 5 (p(bar)=1,...).
 !     (e)  Mixture properties are to be printed in SI units (siunits).
 !     (f)  Reactant fractions are to be expressed in terms of mass (massf)
 !     (g)  The short output file format is used (short)
 !     (h)  I don't know why but this program is unbelievably finicky, be warned
  
 reac
        oxid N2O(L),298.15K   wtfrac=1      t(k)=298.15
        fuel C32H66(a)        wtfrac=0.97   t(k)=298.15
        fuel C                wtfrac=0.03   t(k)=298.15
 prob   case=Boundless   hp   p(bar)=1,2.5,5,7.5,10,12.5,15,17.5,20,22.5,25,27.5,
 30,32.5,35,37.5,40,42.5,45,47.5,50,55,60,65,70
        o/f=0.5,0.75,1,1.25,1.5,2,2.25,2.5,2.75,3,3.5,4,4.5,5,5.5,6,6.5,7,7.5,8,8
 .5,9,9.5,10,10.5,11,12,13,14,15,17.5,20,25,37.5,50
 output siunits   massf   short
  
 end




         THERMODYNAMIC EQUILIBRIUM COMBUSTION PROPERTIES AT ASSIGNED

                                   PRESSURES

 CASE = Boundless      

             REACTANT                    WT FRACTION      ENERGY      TEMP
                                          (SEE NOTE)     KJ/KG-MOL      K  
 OXIDANT     N2O(L),298.15K               1.0000000     65100.000    298.150
 FUEL        C32H66(a)                    0.9700000   -967800.000    298.150
 FUEL        C                            0.0300000    716680.000    298.150

 O/F=    0.50000  %FUEL= 66.666667  R,EQ.RATIO=18.809541  PHI,EQ.RATIO=18.809541

 THERMODYNAMIC PROPERTIES

 P, BAR            1.0000   2.5000   5.0000   7.5000   10.000   12.500   15.000   17.500
 T, K              981.95  1027.95  1066.33  1090.19  1107.74  1121.69  1133.31  1143.27
 RHO, KG/CU M    2.1440-1 5.2441-1 1.0323 0 1.5348 0 2.0340 0 2.5310 0 3.0263 0 3.5203 0
 H, KJ/KG          298.35   298.35   298.35   298.35   298.35   298.35   298.35   298.35
 U, KJ/KG         -168.07  -178.38  -186.01  -190.33  -193.29  -195.53  -197.30  -198.77
 G, KJ/KG        -11607.9 -11723.4 -11833.0 -11905.0 -11959.2 -12003.0 -12039.7 -12071.3
 S, KJ/(KG)(K)    12.1251  11.6949  11.3767  11.1937  11.0654  10.9668  10.8867  10.8195

 M, (1/n)          17.505   17.928   18.305   18.549   18.734   18.884   19.011   19.122
 MW, MOL WT        10.398   10.659   10.899   11.057   11.178   11.276   11.360   11.433
 (dLV/dLP)t      -1.06493 -1.07728 -1.08595 -1.09051 -1.09344 -1.09550 -1.09705 -1.09824
 (dLV/dLT)p        1.8511   1.9479   2.0048   2.0296   2.0428   2.0505   2.0550   2.0575
 Cp, KJ/(KG)(K)    8.3978   8.5021   8.4516   8.3694   8.2882   8.2125   8.1429   8.0789
 GAMMAs            1.1479   1.1490   1.1495   1.1496   1.1495   1.1493   1.1491   1.1489
 SON VEL,M/SEC      731.7    740.1    746.2    749.5    751.8    753.4    754.7    755.7

 MASS FRACTIONS

 CH4              0.05041  0.06925  0.08577  0.09626  0.10405  0.11028  0.11548  0.11995
 *CO              0.14033  0.13613  0.13343  0.13195  0.13090  0.13009  0.12941  0.12883
 *CO2             0.01600  0.01514  0.01450  0.01417  0.01397  0.01382  0.01372  0.01364
 C2H4             0.00000  0.00000  0.00000  0.00000  0.00001  0.00001  0.00001  0.00001
 C2H6             0.00000  0.00000  0.00001  0.00001  0.00002  0.00002  0.00003  0.00003
 HCN              0.00000  0.00000  0.00001  0.00001  0.00001  0.00002  0.00002  0.00002
 *H2              0.07902  0.07388  0.06946  0.06667  0.06461  0.06296  0.06158  0.06040
 H2O              0.03308  0.03649  0.03875  0.03997  0.04081  0.04145  0.04197  0.04241
 NH3              0.00013  0.00023  0.00033  0.00042  0.00049  0.00055  0.00060  0.00065
 *N2              0.21205  0.21197  0.21188  0.21181  0.21175  0.21170  0.21166  0.21162
 C(gr)            0.46897  0.45689  0.44586  0.43872  0.43338  0.42911  0.42553  0.42244

  * THERMODYNAMIC PROPERTIES FITTED TO 20000.K

 NOTE. WEIGHT FRACTION OF FUEL IN TOTAL FUELS AND OF OXIDANT IN TOTAL OXIDANTS









         THERMODYNAMIC EQUILIBRIUM COMBUSTION PROPERTIES AT ASSIGNED

                                   PRESSURES

 CASE = Boundless      

             REACTANT                    WT FRACTION      ENERGY      TEMP
                                          (SEE NOTE)     KJ/KG-MOL      K  
 OXIDANT     N2O(L),298.15K               1.0000000     65100.000    298.150
 FUEL        C32H66(a)                    0.9700000   -967800.000    298.150
 FUEL        C                            0.0300000    716680.000    298.150

 O/F=    0.50000  %FUEL= 66.666667  R,EQ.RATIO=18.809541  PHI,EQ.RATIO=18.809541

 THERMODYNAMIC PROPERTIES

 P, BAR            20.000   22.500   25.000   27.500   30.000   32.500   35.000   37.500
 T, K             1152.01  1159.79  1166.82  1173.22  1179.11  1184.55  1189.62  1194.36
 RHO, KG/CU M    4.0132 0 4.5052 0 4.9964 0 5.4870 0 5.9770 0 6.4665 0 6.9555 0 7.4441 0
 H, KJ/KG          298.35   298.35   298.35   298.35   298.35   298.35   298.35   298.35
 U, KJ/KG         -200.01  -201.07  -202.01  -202.84  -203.58  -204.24  -204.85  -205.41
 G, KJ/KG        -12099.1 -12123.9 -12146.4 -12166.8 -12185.6 -12202.9 -12219.1 -12234.2
 S, KJ/(KG)(K)    10.7616  10.7108  10.6655  10.6247  10.5876  10.5536  10.5222  10.4930

 M, (1/n)          19.220   19.309   19.389   19.463   19.532   19.596   19.656   19.713
 MW, MOL WT        11.497   11.556   11.609   11.658   11.703   11.746   11.785   11.823
 (dLV/dLP)t      -1.09919 -1.09997 -1.10060 -1.10113 -1.10157 -1.10194 -1.10226 -1.10253
 (dLV/dLT)p        2.0588   2.0591   2.0588   2.0581   2.0570   2.0557   2.0542   2.0525
 Cp, KJ/(KG)(K)    8.0197   7.9647   7.9134   7.8654   7.8202   7.7777   7.7374   7.6991
 GAMMAs            1.1487   1.1485   1.1482   1.1480   1.1478   1.1476   1.1474   1.1471
 SON VEL,M/SEC      756.6    757.3    758.0    758.5    759.0    759.4    759.8    760.2

 MASS FRACTIONS

 CH4              0.12387  0.12737  0.13053  0.13340  0.13605  0.13850  0.14077  0.14290
 *CO              0.12831  0.12784  0.12742  0.12703  0.12666  0.12632  0.12599  0.12569
 *CO2             0.01358  0.01354  0.01350  0.01348  0.01345  0.01344  0.01342  0.01341
 C2H4             0.00001  0.00001  0.00001  0.00001  0.00002  0.00002  0.00002  0.00002
 C2H6             0.00003  0.00004  0.00004  0.00005  0.00005  0.00006  0.00006  0.00007
 HCN              0.00002  0.00002  0.00002  0.00003  0.00003  0.00003  0.00003  0.00003
 *H2              0.05936  0.05844  0.05760  0.05684  0.05614  0.05549  0.05489  0.05432
 H2O              0.04279  0.04313  0.04343  0.04371  0.04396  0.04419  0.04441  0.04462
 NH3              0.00070  0.00074  0.00078  0.00082  0.00085  0.00089  0.00092  0.00095
 *N2              0.21158  0.21154  0.21151  0.21147  0.21144  0.21141  0.21139  0.21136
 C(gr)            0.41974  0.41733  0.41515  0.41317  0.41134  0.40966  0.40809  0.40663

  * THERMODYNAMIC PROPERTIES FITTED TO 20000.K

 NOTE. WEIGHT FRACTION OF FUEL IN TOTAL FUELS AND OF OXIDANT IN TOTAL OXIDANTS









         THERMODYNAMIC EQUILIBRIUM COMBUSTION PROPERTIES AT ASSIGNED

                                   PRESSURES

 CASE = Boundless      

             REACTANT                    WT FRACTION      ENERGY      TEMP
                                          (SEE NOTE)     KJ/KG-MOL      K  
 OXIDANT     N2O(L),298.15K               1.0000000     65100.000    298.150
 FUEL        C32H66(a)                    0.9700000   -967800.000    298.150
 FUEL        C                            0.0300000    716680.000    298.150

 O/F=    0.50000  %FUEL= 66.666667  R,EQ.RATIO=18.809541  PHI,EQ.RATIO=18.809541

 THERMODYNAMIC PROPERTIES

 P, BAR            40.000   42.500   45.000   47.500   50.000   55.000   60.000   65.000
 T, K             1198.82  1203.02  1206.99  1210.76  1214.35  1221.04  1227.19  1232.86
 RHO, KG/CU M    7.9323 0 8.4202 0 8.9078 0 9.3952 0 9.8822 0 1.0856 1 1.1828 1 1.2800 1
 H, KJ/KG          298.35   298.35   298.35   298.35   298.35   298.35   298.35   298.35
 U, KJ/KG         -205.92  -206.39  -206.82  -207.23  -207.61  -208.30  -208.91  -209.45
 G, KJ/KG        -12248.3 -12261.6 -12274.2 -12286.1 -12297.4 -12318.5 -12337.7 -12355.4
 S, KJ/(KG)(K)    10.4659  10.4404  10.4164  10.3938  10.3724  10.3328  10.2968  10.2638

 M, (1/n)          19.767   19.817   19.866   19.912   19.956   20.038   20.115   20.186
 MW, MOL WT        11.858   11.891   11.923   11.954   11.983   12.037   12.088   12.134
 (dLV/dLP)t      -1.10275 -1.10295 -1.10311 -1.10325 -1.10337 -1.10355 -1.10367 -1.10375
 (dLV/dLT)p        2.0508   2.0489   2.0470   2.0450   2.0430   2.0390   2.0349   2.0308
 Cp, KJ/(KG)(K)    7.6628   7.6281   7.5949   7.5632   7.5328   7.4754   7.4222   7.3725
 GAMMAs            1.1469   1.1467   1.1465   1.1463   1.1461   1.1458   1.1454   1.1450
 SON VEL,M/SEC      760.5    760.8    761.0    761.3    761.5    761.9    762.2    762.5

 MASS FRACTIONS

 CH4              0.14490  0.14678  0.14856  0.15025  0.15186  0.15485  0.15759  0.16012
 *CO              0.12539  0.12511  0.12485  0.12459  0.12434  0.12387  0.12343  0.12302
 *CO2             0.01341  0.01340  0.01340  0.01340  0.01340  0.01341  0.01342  0.01343
 CH3CN            0.00000  0.00000  0.00000  0.00000  0.00000  0.00000  0.00000  0.00001
 C2H4             0.00002  0.00002  0.00002  0.00002  0.00002  0.00003  0.00003  0.00003
 C2H6             0.00007  0.00007  0.00008  0.00008  0.00009  0.00010  0.00011  0.00011
 HCN              0.00003  0.00004  0.00004  0.00004  0.00004  0.00004  0.00004  0.00005
 *H2              0.05379  0.05329  0.05282  0.05237  0.05194  0.05114  0.05041  0.04974
 H2O              0.04481  0.04499  0.04517  0.04533  0.04549  0.04579  0.04606  0.04632
 NH3              0.00098  0.00101  0.00104  0.00107  0.00110  0.00115  0.00120  0.00124
 *N2              0.21133  0.21131  0.21128  0.21126  0.21124  0.21119  0.21115  0.21111
 C(gr)            0.40525  0.40396  0.40273  0.40157  0.40047  0.39842  0.39654  0.39481

  * THERMODYNAMIC PROPERTIES FITTED TO 20000.K

 NOTE. WEIGHT FRACTION OF FUEL IN TOTAL FUELS AND OF OXIDANT IN TOTAL OXIDANTS









         THERMODYNAMIC EQUILIBRIUM COMBUSTION PROPERTIES AT ASSIGNED

                                   PRESSURES

 CASE = Boundless      

             REACTANT                    WT FRACTION      ENERGY      TEMP
                                          (SEE NOTE)     KJ/KG-MOL      K  
 OXIDANT     N2O(L),298.15K               1.0000000     65100.000    298.150
 FUEL        C32H66(a)                    0.9700000   -967800.000    298.150
 FUEL        C                            0.0300000    716680.000    298.150

 O/F=    0.50000  %FUEL= 66.666667  R,EQ.RATIO=18.809541  PHI,EQ.RATIO=18.809541

 THERMODYNAMIC PROPERTIES

 P, BAR            70.000
 T, K             1238.13
 RHO, KG/CU M    1.3772 1
 H, KJ/KG          298.35
 U, KJ/KG         -209.94
 G, KJ/KG        -12371.8
 S, KJ/(KG)(K)    10.2333

 M, (1/n)          20.253
 MW, MOL WT        12.178
 (dLV/dLP)t      -1.10378
 (dLV/dLT)p        2.0267
 Cp, KJ/(KG)(K)    7.3259
 GAMMAs            1.1447
 SON VEL,M/SEC      762.8

 MASS FRACTIONS

 CH4              0.16247
 *CO              0.12262
 *CO2             0.01345
 CH3CN            0.00001
 C2H4             0.00003
 C2H6             0.00012
 HCN              0.00005
 *H2              0.04911
 H2O              0.04656
 NH3              0.00129
 *N2              0.21107
 C(gr)            0.39321

  * THERMODYNAMIC PROPERTIES FITTED TO 20000.K

 NOTE. WEIGHT FRACTION OF FUEL IN TOTAL FUELS AND OF OXIDANT IN TOTAL OXIDANTS









         THERMODYNAMIC EQUILIBRIUM COMBUSTION PROPERTIES AT ASSIGNED

                                   PRESSURES

 CASE = Boundless      

             REACTANT                    WT FRACTION      ENERGY      TEMP
                                          (SEE NOTE)     KJ/KG-MOL      K  
 OXIDANT     N2O(L),298.15K               1.0000000     65100.000    298.150
 FUEL        C32H66(a)                    0.9700000   -967800.000    298.150
 FUEL        C                            0.0300000    716680.000    298.150

 O/F=    0.75000  %FUEL= 57.142857  R,EQ.RATIO=12.539694  PHI,EQ.RATIO=12.539694

 THERMODYNAMIC PROPERTIES

 P, BAR            1.0000   2.5000   5.0000   7.5000   10.000   12.500   15.000   17.500
 T, K             1065.78  1106.63  1142.48  1165.40  1182.51  1196.27  1207.81  1217.77
 RHO, KG/CU M    1.9508-1 4.7804-1 9.4126-1 1.3991 0 1.8536 0 2.3057 0 2.7560 0 3.2049 0
 H, KJ/KG          467.03   467.03   467.03   467.03   467.03   467.03   467.03   467.03
 U, KJ/KG         -45.581  -55.939  -64.174  -69.035  -72.465  -75.101  -77.230  -79.008
 G, KJ/KG        -12730.1 -12752.3 -12809.3 -12857.1 -12896.9 -12930.9 -12960.6 -12987.0
 S, KJ/(KG)(K)    12.3826  11.9456  11.6206  11.4330  11.3013  11.1998  11.1174  11.0481

 M, (1/n)          17.287   17.594   17.882   18.076   18.224   18.347   18.451   18.543
 MW, MOL WT        11.276   11.461   11.648   11.778   11.880   11.965   12.038   12.103
 (dLV/dLP)t      -1.03270 -1.04552 -1.05592 -1.06203 -1.06629 -1.06952 -1.07209 -1.07419
 (dLV/dLT)p        1.4160   1.5441   1.6371   1.6873   1.7202   1.7439   1.7619   1.7761
 Cp, KJ/(KG)(K)    5.2709   5.8466   6.1794   6.3236   6.4014   6.4473   6.4755   6.4926
 GAMMAs            1.1768   1.1726   1.1706   1.1697   1.1690   1.1686   1.1681   1.1678
 SON VEL,M/SEC      776.7    783.1    788.6    791.8    794.2    795.9    797.4    798.5

 MASS FRACTIONS

 CH4              0.01916  0.03059  0.04176  0.04932  0.05514  0.05991  0.06397  0.06751
 *CO              0.23914  0.23003  0.22349  0.21983  0.21729  0.21536  0.21379  0.21247
 *CO2             0.00889  0.01031  0.01111  0.01148  0.01172  0.01189  0.01203  0.01214
 C2H4             0.00000  0.00000  0.00000  0.00000  0.00001  0.00001  0.00001  0.00001
 C2H6             0.00000  0.00000  0.00000  0.00001  0.00001  0.00001  0.00001  0.00001
 HCN              0.00001  0.00002  0.00002  0.00003  0.00004  0.00004  0.00005  0.00005
 *H2              0.07535  0.07194  0.06872  0.06657  0.06494  0.06361  0.06248  0.06149
 H2O              0.01434  0.01903  0.02259  0.02464  0.02607  0.02717  0.02807  0.02882
 NH3              0.00008  0.00015  0.00024  0.00031  0.00037  0.00042  0.00047  0.00051
 *N2              0.27271  0.27264  0.27257  0.27251  0.27246  0.27241  0.27237  0.27233
 C(gr)            0.37033  0.36528  0.35950  0.35530  0.35196  0.34917  0.34676  0.34463

  * THERMODYNAMIC PROPERTIES FITTED TO 20000.K

 NOTE. WEIGHT FRACTION OF FUEL IN TOTAL FUELS AND OF OXIDANT IN TOTAL OXIDANTS









         THERMODYNAMIC EQUILIBRIUM COMBUSTION PROPERTIES AT ASSIGNED

                                   PRESSURES

 CASE = Boundless      

             REACTANT                    WT FRACTION      ENERGY      TEMP
                                          (SEE NOTE)     KJ/KG-MOL      K  
 OXIDANT     N2O(L),298.15K               1.0000000     65100.000    298.150
 FUEL        C32H66(a)                    0.9700000   -967800.000    298.150
 FUEL        C                            0.0300000    716680.000    298.150

 O/F=    0.75000  %FUEL= 57.142857  R,EQ.RATIO=12.539694  PHI,EQ.RATIO=12.539694

 THERMODYNAMIC PROPERTIES

 P, BAR            20.000   22.500   25.000   27.500   30.000   32.500   35.000   37.500
 T, K             1226.56  1234.42  1241.55  1248.07  1254.08  1259.66  1264.86  1269.74
 RHO, KG/CU M    3.6526 0 4.0992 0 4.5450 0 4.9900 0 5.4343 0 5.8780 0 6.3211 0 6.7638 0
 H, KJ/KG          467.03   467.03   467.03   467.03   467.03   467.03   467.03   467.03
 U, KJ/KG         -80.531  -81.857  -83.029  -84.077  -85.023  -85.883  -86.670  -87.395
 G, KJ/KG        -13010.8 -13032.5 -13052.3 -13070.7 -13087.8 -13103.8 -13118.8 -13132.9
 S, KJ/(KG)(K)    10.9884  10.9359  10.8891  10.8470  10.8086  10.7734  10.7409  10.7108

 M, (1/n)          18.625   18.699   18.767   18.829   18.888   18.942   18.993   19.042
 MW, MOL WT        12.161   12.214   12.263   12.308   12.350   12.389   12.426   12.461
 (dLV/dLP)t      -1.07597 -1.07749 -1.07881 -1.07998 -1.08101 -1.08194 -1.08277 -1.08353
 (dLV/dLT)p        1.7876   1.7971   1.8051   1.8119   1.8178   1.8228   1.8272   1.8311
 Cp, KJ/(KG)(K)    6.5026   6.5077   6.5094   6.5085   6.5057   6.5016   6.4965   6.4905
 GAMMAs            1.1674   1.1671   1.1668   1.1665   1.1663   1.1660   1.1658   1.1655
 SON VEL,M/SEC      799.5    800.4    801.1    801.8    802.4    802.9    803.4    803.9

 MASS FRACTIONS

 CH4              0.07065  0.07349  0.07607  0.07844  0.08063  0.08267  0.08459  0.08638
 *CO              0.21134  0.21034  0.20944  0.20863  0.20789  0.20721  0.20657  0.20598
 *CO2             0.01224  0.01233  0.01241  0.01248  0.01255  0.01261  0.01267  0.01273
 C2H4             0.00001  0.00001  0.00002  0.00002  0.00002  0.00002  0.00002  0.00002
 C2H6             0.00002  0.00002  0.00002  0.00003  0.00003  0.00003  0.00003  0.00004
 HCN              0.00006  0.00006  0.00006  0.00007  0.00007  0.00008  0.00008  0.00008
 *H2              0.06062  0.05984  0.05913  0.05847  0.05787  0.05730  0.05678  0.05628
 H2O              0.02947  0.03004  0.03055  0.03101  0.03143  0.03182  0.03218  0.03251
 NH3              0.00055  0.00059  0.00063  0.00066  0.00070  0.00073  0.00076  0.00079
 *N2              0.27229  0.27226  0.27223  0.27220  0.27217  0.27214  0.27211  0.27208
 C(gr)            0.34273  0.34101  0.33943  0.33798  0.33663  0.33537  0.33419  0.33308

  * THERMODYNAMIC PROPERTIES FITTED TO 20000.K

 NOTE. WEIGHT FRACTION OF FUEL IN TOTAL FUELS AND OF OXIDANT IN TOTAL OXIDANTS









         THERMODYNAMIC EQUILIBRIUM COMBUSTION PROPERTIES AT ASSIGNED

                                   PRESSURES

 CASE = Boundless      

             REACTANT                    WT FRACTION      ENERGY      TEMP
                                          (SEE NOTE)     KJ/KG-MOL      K  
 OXIDANT     N2O(L),298.15K               1.0000000     65100.000    298.150
 FUEL        C32H66(a)                    0.9700000   -967800.000    298.150
 FUEL        C                            0.0300000    716680.000    298.150

 O/F=    0.75000  %FUEL= 57.142857  R,EQ.RATIO=12.539694  PHI,EQ.RATIO=12.539694

 THERMODYNAMIC PROPERTIES

 P, BAR            40.000   42.500   45.000   47.500   50.000   55.000   60.000   65.000
 T, K             1274.34  1278.68  1282.80  1286.72  1290.45  1297.43  1303.85  1309.80
 RHO, KG/CU M    7.2060 0 7.6477 0 8.0892 0 8.5302 0 8.9709 0 9.8515 0 1.0731 1 1.1609 1
 H, KJ/KG          467.03   467.03   467.03   467.03   467.03   467.03   467.03   467.03
 U, KJ/KG         -88.066  -88.689  -89.271  -89.815  -90.326  -91.263  -92.101  -92.858
 G, KJ/KG        -13146.2 -13158.9 -13171.0 -13182.5 -13193.4 -13214.0 -13233.0 -13250.6
 S, KJ/(KG)(K)    10.6826  10.6562  10.6314  10.6080  10.5858  10.5447  10.5074  10.4731

 M, (1/n)          19.088   19.131   19.173   19.213   19.251   19.322   19.389   19.451
 MW, MOL WT        12.495   12.526   12.556   12.585   12.613   12.665   12.714   12.759
 (dLV/dLP)t      -1.08422 -1.08485 -1.08543 -1.08596 -1.08646 -1.08734 -1.08811 -1.08879
 (dLV/dLT)p        1.8345   1.8375   1.8401   1.8425   1.8446   1.8481   1.8509   1.8532
 Cp, KJ/(KG)(K)    6.4839   6.4769   6.4695   6.4619   6.4540   6.4379   6.4216   6.4052
 GAMMAs            1.1653   1.1651   1.1649   1.1647   1.1645   1.1641   1.1637   1.1633
 SON VEL,M/SEC      804.3    804.7    805.0    805.3    805.6    806.2    806.6    807.1

 MASS FRACTIONS

 CH4              0.08807  0.08968  0.09120  0.09265  0.09403  0.09662  0.09901  0.10123
 *CO              0.20543  0.20490  0.20441  0.20394  0.20349  0.20265  0.20188  0.20117
 *CO2             0.01278  0.01284  0.01289  0.01293  0.01298  0.01307  0.01315  0.01323
 CH3CN            0.00000  0.00001  0.00001  0.00001  0.00001  0.00001  0.00001  0.00001
 C2H4             0.00003  0.00003  0.00003  0.00003  0.00003  0.00003  0.00004  0.00004
 C2H6             0.00004  0.00004  0.00004  0.00005  0.00005  0.00006  0.00006  0.00007
 HCN              0.00009  0.00009  0.00009  0.00010  0.00010  0.00010  0.00011  0.00012
 *H2              0.05581  0.05537  0.05495  0.05455  0.05417  0.05346  0.05280  0.05219
 H2O              0.03283  0.03312  0.03340  0.03366  0.03391  0.03438  0.03481  0.03520
 NH3              0.00082  0.00084  0.00087  0.00090  0.00092  0.00097  0.00102  0.00106
 *N2              0.27206  0.27203  0.27201  0.27199  0.27197  0.27192  0.27188  0.27184
 C(gr)            0.33203  0.33104  0.33009  0.32919  0.32833  0.32671  0.32522  0.32384

  * THERMODYNAMIC PROPERTIES FITTED TO 20000.K

 NOTE. WEIGHT FRACTION OF FUEL IN TOTAL FUELS AND OF OXIDANT IN TOTAL OXIDANTS









         THERMODYNAMIC EQUILIBRIUM COMBUSTION PROPERTIES AT ASSIGNED

                                   PRESSURES

 CASE = Boundless      

             REACTANT                    WT FRACTION      ENERGY      TEMP
                                          (SEE NOTE)     KJ/KG-MOL      K  
 OXIDANT     N2O(L),298.15K               1.0000000     65100.000    298.150
 FUEL        C32H66(a)                    0.9700000   -967800.000    298.150
 FUEL        C                            0.0300000    716680.000    298.150

 O/F=    0.75000  %FUEL= 57.142857  R,EQ.RATIO=12.539694  PHI,EQ.RATIO=12.539694

 THERMODYNAMIC PROPERTIES

 P, BAR            70.000
 T, K             1315.35
 RHO, KG/CU M    1.2487 1
 H, KJ/KG          467.03
 U, KJ/KG         -93.546
 G, KJ/KG        -13267.1
 S, KJ/(KG)(K)    10.4415

 M, (1/n)          19.509
 MW, MOL WT        12.802
 (dLV/dLP)t      -1.08938
 (dLV/dLT)p        1.8550
 Cp, KJ/(KG)(K)    6.3889
 GAMMAs            1.1630
 SON VEL,M/SEC      807.4

 MASS FRACTIONS

 CH4              0.10329
 *CO              0.20050
 *CO2             0.01331
 CH3CN            0.00001
 C2H4             0.00004
 C2H6             0.00007
 HCN              0.00012
 *H2              0.05162
 H2O              0.03557
 NH3              0.00110
 *N2              0.27181
 C(gr)            0.32255

  * THERMODYNAMIC PROPERTIES FITTED TO 20000.K

 NOTE. WEIGHT FRACTION OF FUEL IN TOTAL FUELS AND OF OXIDANT IN TOTAL OXIDANTS









         THERMODYNAMIC EQUILIBRIUM COMBUSTION PROPERTIES AT ASSIGNED

                                   PRESSURES

 CASE = Boundless      

             REACTANT                    WT FRACTION      ENERGY      TEMP
                                          (SEE NOTE)     KJ/KG-MOL      K  
 OXIDANT     N2O(L),298.15K               1.0000000     65100.000    298.150
 FUEL        C32H66(a)                    0.9700000   -967800.000    298.150
 FUEL        C                            0.0300000    716680.000    298.150

 O/F=    1.00000  %FUEL= 50.000000  R,EQ.RATIO= 9.404771  PHI,EQ.RATIO= 9.404771

 THERMODYNAMIC PROPERTIES

 P, BAR            1.0000   2.5000   5.0000   7.5000   10.000   12.500   15.000   17.500
 T, K             1174.40  1201.05  1228.61  1247.66  1262.44  1274.61  1285.00  1294.10
 RHO, KG/CU M    1.7802-1 4.3972-1 8.6938-1 1.2944 0 1.7164 0 2.1363 0 2.5544 0 2.9711 0
 H, KJ/KG          593.54   593.54   593.54   593.54   593.54   593.54   593.54   593.54
 U, KJ/KG          31.800   25.000   18.417   14.126   10.939   8.4084   6.3131   4.5288
 G, KJ/KG        -14120.7 -13930.6 -13862.9 -13851.2 -13854.2 -13862.6 -13873.1 -13884.5
 S, KJ/(KG)(K)    12.5291  12.0929  11.7665  11.5775  11.4443  11.3416  11.2581  11.1878

 M, (1/n)          17.383   17.564   17.762   17.904   18.017   18.112   18.194   18.268
 MW, MOL WT        12.236   12.351   12.484   12.584   12.665   12.735   12.797   12.852
 (dLV/dLP)t      -1.01145 -1.02066 -1.02977 -1.03578 -1.04025 -1.04380 -1.04673 -1.04921
 (dLV/dLT)p        1.1311   1.2281   1.3178   1.3735   1.4134   1.4440   1.4687   1.4891
 Cp, KJ/(KG)(K)    3.1777   3.6915   4.1207   4.3651   4.5286   4.6475   4.7386   4.8109
 GAMMAs            1.2212   1.2088   1.2012   1.1975   1.1952   1.1936   1.1923   1.1913
 SON VEL,M/SEC      828.2    829.0    831.2    833.0    834.5    835.7    836.8    837.7

 MASS FRACTIONS

 CH4              0.00641  0.01249  0.01938  0.02444  0.02851  0.03196  0.03495  0.03761
 *CO              0.30851  0.30150  0.29504  0.29097  0.28800  0.28566  0.28374  0.28209
 *CO2             0.00254  0.00417  0.00553  0.00633  0.00688  0.00731  0.00764  0.00793
 C2H4             0.00000  0.00000  0.00000  0.00001  0.00001  0.00001  0.00001  0.00001
 C2H6             0.00000  0.00000  0.00000  0.00000  0.00000  0.00000  0.00001  0.00001
 HCN              0.00004  0.00005  0.00006  0.00008  0.00009  0.00010  0.00011  0.00012
 *H2              0.06947  0.06758  0.06550  0.06400  0.06280  0.06180  0.06093  0.06016
 H2O              0.00416  0.00733  0.01037  0.01233  0.01379  0.01495  0.01591  0.01673
 NH3              0.00004  0.00009  0.00016  0.00021  0.00026  0.00030  0.00034  0.00038
 *N2              0.31819  0.31814  0.31808  0.31803  0.31798  0.31794  0.31790  0.31787
 C(gr)            0.29064  0.28864  0.28588  0.28360  0.28167  0.27997  0.27846  0.27708

  * THERMODYNAMIC PROPERTIES FITTED TO 20000.K

 NOTE. WEIGHT FRACTION OF FUEL IN TOTAL FUELS AND OF OXIDANT IN TOTAL OXIDANTS









         THERMODYNAMIC EQUILIBRIUM COMBUSTION PROPERTIES AT ASSIGNED

                                   PRESSURES

 CASE = Boundless      

             REACTANT                    WT FRACTION      ENERGY      TEMP
                                          (SEE NOTE)     KJ/KG-MOL      K  
 OXIDANT     N2O(L),298.15K               1.0000000     65100.000    298.150
 FUEL        C32H66(a)                    0.9700000   -967800.000    298.150
 FUEL        C                            0.0300000    716680.000    298.150

 O/F=    1.00000  %FUEL= 50.000000  R,EQ.RATIO= 9.404771  PHI,EQ.RATIO= 9.404771

 THERMODYNAMIC PROPERTIES

 P, BAR            20.000   22.500   25.000   27.500   30.000   32.500   35.000   37.500
 T, K             1302.20  1309.51  1316.18  1322.32  1328.01  1333.32  1338.30  1342.98
 RHO, KG/CU M    3.3866 0 3.8011 0 4.2147 0 4.6276 0 5.0397 0 5.4513 0 5.8622 0 6.2727 0
 H, KJ/KG          593.54   593.54   593.54   593.54   593.54   593.54   593.54   593.54
 U, KJ/KG          2.9779   1.6084  0.38420 -0.72125  -1.7277  -2.6505  -3.5017  -4.2907
 G, KJ/KG        -13896.1 -13907.6 -13918.9 -13929.9 -13940.6 -13950.9 -13960.9 -13970.5
 S, KJ/(KG)(K)    11.1271  11.0738  11.0262  10.9833  10.9443  10.9084  10.8753  10.8446

 M, (1/n)          18.334   18.394   18.449   18.501   18.549   18.595   18.637   18.678
 MW, MOL WT        12.902   12.948   12.990   13.030   13.067   13.103   13.136   13.168
 (dLV/dLP)t      -1.05136 -1.05325 -1.05494 -1.05645 -1.05781 -1.05906 -1.06020 -1.06126
 (dLV/dLT)p        1.5064   1.5214   1.5344   1.5459   1.5562   1.5655   1.5738   1.5814
 Cp, KJ/(KG)(K)    4.8697   4.9185   4.9596   4.9947   5.0250   5.0513   5.0743   5.0946
 GAMMAs            1.1904   1.1897   1.1891   1.1885   1.1880   1.1875   1.1870   1.1866
 SON VEL,M/SEC      838.5    839.2    839.8    840.4    840.9    841.4    841.8    842.3

 MASS FRACTIONS

 CH4              0.04001  0.04220  0.04421  0.04607  0.04781  0.04945  0.05098  0.05243
 *CO              0.28066  0.27940  0.27826  0.27723  0.27628  0.27541  0.27460  0.27385
 *CO2             0.00817  0.00838  0.00857  0.00874  0.00890  0.00904  0.00917  0.00930
 CH3CN            0.00000  0.00000  0.00000  0.00000  0.00000  0.00001  0.00001  0.00001
 C2H4             0.00002  0.00002  0.00002  0.00002  0.00002  0.00002  0.00003  0.00003
 C2H6             0.00001  0.00001  0.00001  0.00001  0.00001  0.00002  0.00002  0.00002
 HCN              0.00012  0.00013  0.00014  0.00015  0.00015  0.00016  0.00017  0.00017
 *H2              0.05947  0.05884  0.05826  0.05773  0.05723  0.05677  0.05633  0.05592
 H2O              0.01745  0.01809  0.01867  0.01919  0.01967  0.02012  0.02053  0.02092
 NH3              0.00042  0.00045  0.00048  0.00051  0.00054  0.00057  0.00059  0.00062
 *N2              0.31783  0.31780  0.31777  0.31774  0.31771  0.31769  0.31766  0.31764
 C(gr)            0.27583  0.27467  0.27359  0.27258  0.27164  0.27074  0.26990  0.26910

  * THERMODYNAMIC PROPERTIES FITTED TO 20000.K

 NOTE. WEIGHT FRACTION OF FUEL IN TOTAL FUELS AND OF OXIDANT IN TOTAL OXIDANTS









         THERMODYNAMIC EQUILIBRIUM COMBUSTION PROPERTIES AT ASSIGNED

                                   PRESSURES

 CASE = Boundless      

             REACTANT                    WT FRACTION      ENERGY      TEMP
                                          (SEE NOTE)     KJ/KG-MOL      K  
 OXIDANT     N2O(L),298.15K               1.0000000     65100.000    298.150
 FUEL        C32H66(a)                    0.9700000   -967800.000    298.150
 FUEL        C                            0.0300000    716680.000    298.150

 O/F=    1.00000  %FUEL= 50.000000  R,EQ.RATIO= 9.404771  PHI,EQ.RATIO= 9.404771

 THERMODYNAMIC PROPERTIES

 P, BAR            40.000   42.500   45.000   47.500   50.000   55.000   60.000   65.000
 T, K             1347.40  1351.60  1355.59  1359.39  1363.03  1369.85  1376.15  1382.01
 RHO, KG/CU M    6.6826 0 7.0922 0 7.5013 0 7.9100 0 8.3184 0 9.1342 0 9.9488 0 1.0762 1
 H, KJ/KG          593.54   593.54   593.54   593.54   593.54   593.54   593.54   593.54
 U, KJ/KG         -5.0255  -5.7125  -6.3571  -6.9637  -7.5363  -8.5920  -9.5456  -10.413
 G, KJ/KG        -13979.8 -13988.8 -13997.6 -14006.0 -14014.2 -14029.8 -14044.5 -14058.4
 S, KJ/(KG)(K)    10.8159  10.7890  10.7637  10.7398  10.7171  10.6752  10.6370  10.6019

 M, (1/n)          18.716   18.753   18.788   18.822   18.854   18.915   18.972   19.026
 MW, MOL WT        13.198   13.227   13.254   13.281   13.307   13.355   13.400   13.443
 (dLV/dLP)t      -1.06223 -1.06314 -1.06399 -1.06478 -1.06553 -1.06689 -1.06810 -1.06919
 (dLV/dLT)p        1.5884   1.5948   1.6007   1.6061   1.6112   1.6203   1.6283   1.6353
 Cp, KJ/(KG)(K)    5.1126   5.1285   5.1428   5.1555   5.1670   5.1866   5.2027   5.2158
 GAMMAs            1.1862   1.1859   1.1855   1.1852   1.1849   1.1843   1.1838   1.1833
 SON VEL,M/SEC      842.6    843.0    843.3    843.6    843.9    844.5    844.9    845.4

 MASS FRACTIONS

 CH4              0.05381  0.05512  0.05637  0.05757  0.05871  0.06087  0.06287  0.06474
 *CO              0.27314  0.27247  0.27184  0.27124  0.27067  0.26961  0.26863  0.26773
 *CO2             0.00941  0.00952  0.00962  0.00972  0.00981  0.00998  0.01014  0.01029
 CH3CN            0.00001  0.00001  0.00001  0.00001  0.00001  0.00001  0.00001  0.00001
 C2H4             0.00003  0.00003  0.00003  0.00004  0.00004  0.00004  0.00004  0.00005
 C2H6             0.00002  0.00002  0.00002  0.00003  0.00003  0.00003  0.00003  0.00004
 HCN              0.00018  0.00019  0.00019  0.00020  0.00020  0.00021  0.00023  0.00024
 HNCO             0.00000  0.00000  0.00000  0.00000  0.00000  0.00000  0.00001  0.00001
 *H2              0.05552  0.05515  0.05480  0.05446  0.05413  0.05352  0.05295  0.05242
 H2O              0.02128  0.02162  0.02194  0.02224  0.02254  0.02308  0.02357  0.02403
 NH3              0.00064  0.00067  0.00069  0.00071  0.00074  0.00078  0.00082  0.00086
 *N2              0.31761  0.31759  0.31757  0.31755  0.31752  0.31748  0.31744  0.31740
 C(gr)            0.26833  0.26760  0.26690  0.26623  0.26558  0.26437  0.26323  0.26217

  * THERMODYNAMIC PROPERTIES FITTED TO 20000.K

 NOTE. WEIGHT FRACTION OF FUEL IN TOTAL FUELS AND OF OXIDANT IN TOTAL OXIDANTS









         THERMODYNAMIC EQUILIBRIUM COMBUSTION PROPERTIES AT ASSIGNED

                                   PRESSURES

 CASE = Boundless      

             REACTANT                    WT FRACTION      ENERGY      TEMP
                                          (SEE NOTE)     KJ/KG-MOL      K  
 OXIDANT     N2O(L),298.15K               1.0000000     65100.000    298.150
 FUEL        C32H66(a)                    0.9700000   -967800.000    298.150
 FUEL        C                            0.0300000    716680.000    298.150

 O/F=    1.00000  %FUEL= 50.000000  R,EQ.RATIO= 9.404771  PHI,EQ.RATIO= 9.404771

 THERMODYNAMIC PROPERTIES

 P, BAR            70.000
 T, K             1387.48
 RHO, KG/CU M    1.1575 1
 H, KJ/KG          593.54
 U, KJ/KG         -11.208
 G, KJ/KG        -14071.6
 S, KJ/(KG)(K)    10.5696

 M, (1/n)          19.076
 MW, MOL WT        13.483
 (dLV/dLP)t      -1.07019
 (dLV/dLT)p        1.6416
 Cp, KJ/(KG)(K)    5.2267
 GAMMAs            1.1828
 SON VEL,M/SEC      845.7

 MASS FRACTIONS

 CH4              0.06649
 *CO              0.26689
 *CO2             0.01043
 CH3CN            0.00001
 C2H4             0.00005
 C2H6             0.00004
 HCN              0.00024
 HNCO             0.00001
 *H2              0.05193
 H2O              0.02446
 NH3              0.00090
 *N2              0.31737
 C(gr)            0.26117

  * THERMODYNAMIC PROPERTIES FITTED TO 20000.K

 NOTE. WEIGHT FRACTION OF FUEL IN TOTAL FUELS AND OF OXIDANT IN TOTAL OXIDANTS









         THERMODYNAMIC EQUILIBRIUM COMBUSTION PROPERTIES AT ASSIGNED

                                   PRESSURES

 CASE = Boundless      

             REACTANT                    WT FRACTION      ENERGY      TEMP
                                          (SEE NOTE)     KJ/KG-MOL      K  
 OXIDANT     N2O(L),298.15K               1.0000000     65100.000    298.150
 FUEL        C32H66(a)                    0.9700000   -967800.000    298.150
 FUEL        C                            0.0300000    716680.000    298.150

 O/F=    1.25000  %FUEL= 44.444444  R,EQ.RATIO= 7.523816  PHI,EQ.RATIO= 7.523816

 THERMODYNAMIC PROPERTIES

 P, BAR            1.0000   2.5000   5.0000   7.5000   10.000   12.500   15.000   17.500
 T, K             1304.93  1316.88  1332.55  1345.04  1355.51  1364.57  1372.59  1379.79
 RHO, KG/CU M    1.6286-1 4.0530-1 8.0596-1 1.2036 0 1.5991 0 1.9929 0 2.3853 0 2.7765 0
 H, KJ/KG          691.94   691.94   691.94   691.94   691.94   691.94   691.94   691.94
 U, KJ/KG          77.924   75.117   71.557   68.818   66.587   64.705   63.077   61.643
 G, KJ/KG        -15757.8 -15341.8 -15101.2 -14995.9 -14937.8 -14902.0 -14878.8 -14863.2
 S, KJ/(KG)(K)    12.6058  12.1756  11.8518  11.6635  11.5305  11.4277  11.3440  11.2735

 M, (1/n)          17.670   17.751   17.859   17.947   18.023   18.089   18.148   18.201
 MW, MOL WT        13.225   13.285   13.366   13.435   13.494   13.546   13.594   13.638
 (dLV/dLP)t      -1.00361 -1.00796 -1.01353 -1.01784 -1.02136 -1.02433 -1.02691 -1.02917
 (dLV/dLT)p        1.0361   1.0785   1.1312   1.1708   1.2024   1.2286   1.2509   1.2703
 Cp, KJ/(KG)(K)    2.4889   2.6975   2.9467   3.1267   3.2658   3.3779   3.4710   3.5499
 GAMMAs            1.2489   1.2407   1.2325   1.2274   1.2238   1.2211   1.2190   1.2172
 SON VEL,M/SEC      875.7    874.8    874.4    874.5    874.8    875.2    875.5    875.9

 MASS FRACTIONS

 CH4              0.00212  0.00481  0.00848  0.01150  0.01409  0.01638  0.01843  0.02030
 *CO              0.35111  0.34823  0.34462  0.34187  0.33964  0.33776  0.33614  0.33472
 *CO2             0.00060  0.00128  0.00211  0.00272  0.00320  0.00360  0.00394  0.00424
 C2H4             0.00000  0.00000  0.00000  0.00001  0.00001  0.00001  0.00001  0.00001
 HCN              0.00014  0.00015  0.00018  0.00019  0.00021  0.00023  0.00024  0.00026
 *H2              0.06294  0.06212  0.06100  0.06009  0.05932  0.05864  0.05803  0.05748
 H2O              0.00108  0.00238  0.00403  0.00529  0.00633  0.00721  0.00797  0.00865
 NH3              0.00002  0.00005  0.00010  0.00014  0.00018  0.00021  0.00024  0.00027
 *N2              0.35351  0.35348  0.35343  0.35339  0.35335  0.35331  0.35328  0.35324
 C(gr)            0.22846  0.22749  0.22606  0.22480  0.22367  0.22264  0.22170  0.22082

  * THERMODYNAMIC PROPERTIES FITTED TO 20000.K

 NOTE. WEIGHT FRACTION OF FUEL IN TOTAL FUELS AND OF OXIDANT IN TOTAL OXIDANTS









         THERMODYNAMIC EQUILIBRIUM COMBUSTION PROPERTIES AT ASSIGNED

                                   PRESSURES

 CASE = Boundless      

             REACTANT                    WT FRACTION      ENERGY      TEMP
                                          (SEE NOTE)     KJ/KG-MOL      K  
 OXIDANT     N2O(L),298.15K               1.0000000     65100.000    298.150
 FUEL        C32H66(a)                    0.9700000   -967800.000    298.150
 FUEL        C                            0.0300000    716680.000    298.150

 O/F=    1.25000  %FUEL= 44.444444  R,EQ.RATIO= 7.523816  PHI,EQ.RATIO= 7.523816

 THERMODYNAMIC PROPERTIES

 P, BAR            20.000   22.500   25.000   27.500   30.000   32.500   35.000   37.500
 T, K             1386.34  1392.36  1397.93  1403.12  1407.98  1412.56  1416.88  1420.98
 RHO, KG/CU M    3.1667 0 3.5560 0 3.9446 0 4.3324 0 4.7197 0 5.1063 0 5.4924 0 5.8781 0
 H, KJ/KG          691.94   691.94   691.94   691.94   691.94   691.94   691.94   691.94
 U, KJ/KG          60.363   59.208   58.155   57.190   56.298   55.470   54.698   53.975
 G, KJ/KG        -14852.6 -14845.5 -14840.8 -14837.9 -14836.3 -14835.8 -14836.0 -14836.9
 S, KJ/(KG)(K)    11.2126  11.1590  11.1112  11.0680  11.0287  10.9926  10.9592  10.9282

 M, (1/n)          18.251   18.297   18.339   18.379   18.417   18.453   18.487   18.519
 MW, MOL WT        13.678   13.716   13.751   13.785   13.816   13.847   13.875   13.903
 (dLV/dLP)t      -1.03120 -1.03302 -1.03468 -1.03620 -1.03760 -1.03890 -1.04010 -1.04123
 (dLV/dLT)p        1.2873   1.3025   1.3161   1.3285   1.3397   1.3501   1.3596   1.3685
 Cp, KJ/(KG)(K)    3.6180   3.6776   3.7302   3.7771   3.8193   3.8575   3.8922   3.9239
 GAMMAs            1.2158   1.2145   1.2134   1.2124   1.2115   1.2107   1.2099   1.2092
 SON VEL,M/SEC      876.3    876.6    876.9    877.2    877.5    877.8    878.1    878.3

 MASS FRACTIONS

 CH4              0.02202  0.02361  0.02510  0.02650  0.02781  0.02906  0.03024  0.03137
 *CO              0.33344  0.33228  0.33123  0.33025  0.32935  0.32851  0.32772  0.32698
 *CO2             0.00450  0.00474  0.00495  0.00515  0.00533  0.00549  0.00565  0.00579
 CH3CN            0.00000  0.00000  0.00001  0.00001  0.00001  0.00001  0.00001  0.00001
 C2H4             0.00002  0.00002  0.00002  0.00002  0.00003  0.00003  0.00003  0.00003
 C2H6             0.00000  0.00000  0.00001  0.00001  0.00001  0.00001  0.00001  0.00001
 HCN              0.00027  0.00028  0.00029  0.00030  0.00031  0.00032  0.00033  0.00034
 *H2              0.05697  0.05650  0.05607  0.05566  0.05528  0.05491  0.05457  0.05424
 H2O              0.00925  0.00980  0.01031  0.01077  0.01121  0.01161  0.01199  0.01235
 NH3              0.00030  0.00033  0.00035  0.00038  0.00040  0.00042  0.00045  0.00047
 *N2              0.35321  0.35318  0.35316  0.35313  0.35310  0.35308  0.35305  0.35303
 C(gr)            0.22000  0.21923  0.21850  0.21781  0.21716  0.21653  0.21593  0.21536

  * THERMODYNAMIC PROPERTIES FITTED TO 20000.K

 NOTE. WEIGHT FRACTION OF FUEL IN TOTAL FUELS AND OF OXIDANT IN TOTAL OXIDANTS









         THERMODYNAMIC EQUILIBRIUM COMBUSTION PROPERTIES AT ASSIGNED

                                   PRESSURES

 CASE = Boundless      

             REACTANT                    WT FRACTION      ENERGY      TEMP
                                          (SEE NOTE)     KJ/KG-MOL      K  
 OXIDANT     N2O(L),298.15K               1.0000000     65100.000    298.150
 FUEL        C32H66(a)                    0.9700000   -967800.000    298.150
 FUEL        C                            0.0300000    716680.000    298.150

 O/F=    1.25000  %FUEL= 44.444444  R,EQ.RATIO= 7.523816  PHI,EQ.RATIO= 7.523816

 THERMODYNAMIC PROPERTIES

 P, BAR            40.000   42.500   45.000   47.500   50.000   55.000   60.000   65.000
 T, K             1424.88  1428.59  1432.14  1435.55  1438.82  1444.99  1450.73  1456.10
 RHO, KG/CU M    6.2633 0 6.6481 0 7.0325 0 7.4165 0 7.8002 0 8.5667 0 9.3320 0 1.0096 1
 H, KJ/KG          691.94   691.94   691.94   691.94   691.94   691.94   691.94   691.94
 U, KJ/KG          53.296   52.656   52.050   51.477   50.931   49.917   48.990   48.139
 G, KJ/KG        -14838.2 -14839.9 -14841.9 -14844.2 -14846.7 -14852.0 -14857.8 -14863.8
 S, KJ/(KG)(K)    10.8993  10.8721  10.8466  10.8224  10.7996  10.7572  10.7186  10.6831

 M, (1/n)          18.551   18.580   18.609   18.636   18.663   18.713   18.761   18.805
 MW, MOL WT        13.929   13.955   13.979   14.002   14.025   14.069   14.109   14.148
 (dLV/dLP)t      -1.04229 -1.04328 -1.04422 -1.04511 -1.04595 -1.04751 -1.04893 -1.05022
 (dLV/dLT)p        1.3767   1.3844   1.3916   1.3983   1.4047   1.4164   1.4269   1.4364
 Cp, KJ/(KG)(K)    3.9531   3.9800   4.0049   4.0280   4.0495   4.0883   4.1225   4.1527
 GAMMAs            1.2086   1.2080   1.2075   1.2070   1.2065   1.2056   1.2047   1.2040
 SON VEL,M/SEC      878.6    878.8    879.0    879.2    879.4    879.8    880.1    880.4

 MASS FRACTIONS

 CH4              0.03244  0.03347  0.03446  0.03541  0.03632  0.03806  0.03968  0.04120
 *CO              0.32628  0.32561  0.32498  0.32438  0.32381  0.32273  0.32173  0.32081
 *CO2             0.00593  0.00606  0.00619  0.00630  0.00641  0.00662  0.00682  0.00700
 CH3CN            0.00001  0.00001  0.00001  0.00001  0.00001  0.00001  0.00001  0.00002
 C2H4             0.00003  0.00004  0.00004  0.00004  0.00004  0.00005  0.00005  0.00005
 C2H6             0.00001  0.00001  0.00001  0.00001  0.00002  0.00002  0.00002  0.00002
 HCN              0.00035  0.00036  0.00037  0.00038  0.00039  0.00041  0.00042  0.00044
 HNC              0.00000  0.00000  0.00000  0.00000  0.00000  0.00000  0.00001  0.00001
 HNCO             0.00000  0.00000  0.00000  0.00001  0.00001  0.00001  0.00001  0.00001
 *H2              0.05393  0.05363  0.05334  0.05307  0.05280  0.05230  0.05183  0.05139
 H2O              0.01269  0.01301  0.01331  0.01360  0.01388  0.01440  0.01488  0.01533
 NH3              0.00049  0.00051  0.00053  0.00055  0.00057  0.00061  0.00064  0.00068
 *N2              0.35301  0.35299  0.35296  0.35294  0.35292  0.35288  0.35284  0.35281
 C(gr)            0.21481  0.21428  0.21377  0.21328  0.21280  0.21190  0.21104  0.21024

  * THERMODYNAMIC PROPERTIES FITTED TO 20000.K

 NOTE. WEIGHT FRACTION OF FUEL IN TOTAL FUELS AND OF OXIDANT IN TOTAL OXIDANTS









         THERMODYNAMIC EQUILIBRIUM COMBUSTION PROPERTIES AT ASSIGNED

                                   PRESSURES

 CASE = Boundless      

             REACTANT                    WT FRACTION      ENERGY      TEMP
                                          (SEE NOTE)     KJ/KG-MOL      K  
 OXIDANT     N2O(L),298.15K               1.0000000     65100.000    298.150
 FUEL        C32H66(a)                    0.9700000   -967800.000    298.150
 FUEL        C                            0.0300000    716680.000    298.150

 O/F=    1.25000  %FUEL= 44.444444  R,EQ.RATIO= 7.523816  PHI,EQ.RATIO= 7.523816

 THERMODYNAMIC PROPERTIES

 P, BAR            70.000
 T, K             1461.15
 RHO, KG/CU M    1.0860 1
 H, KJ/KG          691.94
 U, KJ/KG          47.353
 G, KJ/KG        -14869.9
 S, KJ/(KG)(K)    10.6504

 M, (1/n)          18.847
 MW, MOL WT        14.185
 (dLV/dLP)t      -1.05142
 (dLV/dLT)p        1.4450
 Cp, KJ/(KG)(K)    4.1797
 GAMMAs            1.2033
 SON VEL,M/SEC      880.7

 MASS FRACTIONS

 CH4              0.04264
 *CO              0.31994
 *CO2             0.00716
 CH3CN            0.00002
 C2H4             0.00006
 C2H6             0.00002
 HCN              0.00045
 HNC              0.00001
 HNCO             0.00001
 *H2              0.05097
 HCHO,formaldehy  0.00001
 H2O              0.01575
 NH3              0.00071
 *N2              0.35277
 C(gr)            0.20947

  * THERMODYNAMIC PROPERTIES FITTED TO 20000.K

 NOTE. WEIGHT FRACTION OF FUEL IN TOTAL FUELS AND OF OXIDANT IN TOTAL OXIDANTS









         THERMODYNAMIC EQUILIBRIUM COMBUSTION PROPERTIES AT ASSIGNED

                                   PRESSURES

 CASE = Boundless      

             REACTANT                    WT FRACTION      ENERGY      TEMP
                                          (SEE NOTE)     KJ/KG-MOL      K  
 OXIDANT     N2O(L),298.15K               1.0000000     65100.000    298.150
 FUEL        C32H66(a)                    0.9700000   -967800.000    298.150
 FUEL        C                            0.0300000    716680.000    298.150

 O/F=    1.50000  %FUEL= 40.000000  R,EQ.RATIO= 6.269847  PHI,EQ.RATIO= 6.269847

 THERMODYNAMIC PROPERTIES

 P, BAR            1.0000   2.5000   5.0000   7.5000   10.000   12.500   15.000   17.500
 T, K             1433.95  1439.03  1446.67  1453.50  1459.69  1465.37  1470.61  1475.50
 RHO, KG/CU M    1.5089-1 3.7662-1 7.5146-1 1.1249 0 1.4971 0 1.8682 0 2.2385 0 2.6080 0
 H, KJ/KG          770.66   770.66   770.66   770.66   770.66   770.66   770.66   770.66
 U, KJ/KG          107.92   106.85   105.28   103.91   102.68   101.57   100.56   99.632
 G, KJ/KG        -17354.3 -16809.6 -16441.0 -16251.5 -16131.7 -16047.9 -15985.9 -15938.0
 S, KJ/(KG)(K)    12.6399  12.2168  11.8975  11.7112  11.5794  11.4774  11.3942  11.3241

 M, (1/n)          17.990   18.025   18.078   18.125   18.169   18.210   18.247   18.283
 MW, MOL WT        14.195   14.225   14.271   14.313   14.352   14.388   14.422   14.453
 (dLV/dLP)t      -1.00137 -1.00327 -1.00608 -1.00855 -1.01076 -1.01275 -1.01456 -1.01623
 (dLV/dLT)p        1.0122   1.0288   1.0532   1.0744   1.0931   1.1099   1.1250   1.1387
 Cp, KJ/(KG)(K)    2.2807   2.3535   2.4592   2.5494   2.6280   2.6972   2.7590   2.8146
 GAMMAs            1.2598   1.2566   1.2522   1.2487   1.2458   1.2434   1.2414   1.2396
 SON VEL,M/SEC      913.7    913.3    912.8    912.4    912.2    912.1    912.1    912.0

 MASS FRACTIONS

 CH4              0.00084  0.00202  0.00381  0.00544  0.00693  0.00831  0.00959  0.01080
 *CO              0.38107  0.37999  0.37840  0.37700  0.37575  0.37462  0.37359  0.37264
 *CO2             0.00018  0.00043  0.00079  0.00110  0.00138  0.00163  0.00186  0.00206
 C2H4             0.00000  0.00000  0.00000  0.00001  0.00001  0.00001  0.00001  0.00002
 HCN              0.00041  0.00042  0.00044  0.00046  0.00048  0.00050  0.00052  0.00054
 HNC              0.00000  0.00000  0.00001  0.00001  0.00001  0.00001  0.00001  0.00001
 *H2              0.05698  0.05663  0.05609  0.05560  0.05515  0.05474  0.05436  0.05400
 H2O              0.00035  0.00084  0.00157  0.00221  0.00279  0.00331  0.00379  0.00423
 NH3              0.00001  0.00003  0.00006  0.00009  0.00012  0.00014  0.00016  0.00019
 *N2              0.38167  0.38164  0.38161  0.38157  0.38154  0.38151  0.38148  0.38145
 C(gr)            0.17849  0.17799  0.17722  0.17650  0.17583  0.17521  0.17461  0.17405

  * THERMODYNAMIC PROPERTIES FITTED TO 20000.K

 NOTE. WEIGHT FRACTION OF FUEL IN TOTAL FUELS AND OF OXIDANT IN TOTAL OXIDANTS









         THERMODYNAMIC EQUILIBRIUM COMBUSTION PROPERTIES AT ASSIGNED

                                   PRESSURES

 CASE = Boundless      

             REACTANT                    WT FRACTION      ENERGY      TEMP
                                          (SEE NOTE)     KJ/KG-MOL      K  
 OXIDANT     N2O(L),298.15K               1.0000000     65100.000    298.150
 FUEL        C32H66(a)                    0.9700000   -967800.000    298.150
 FUEL        C                            0.0300000    716680.000    298.150

 O/F=    1.50000  %FUEL= 40.000000  R,EQ.RATIO= 6.269847  PHI,EQ.RATIO= 6.269847

 THERMODYNAMIC PROPERTIES

 P, BAR            20.000   22.500   25.000   27.500   30.000   32.500   35.000   37.500
 T, K             1480.08  1484.38  1488.45  1492.31  1495.99  1499.49  1502.84  1506.06
 RHO, KG/CU M    2.9767 0 3.3448 0 3.7124 0 4.0794 0 4.4459 0 4.8120 0 5.1776 0 5.5429 0
 H, KJ/KG          770.66   770.66   770.66   770.66   770.66   770.66   770.66   770.66
 U, KJ/KG          98.775   97.978   97.233   96.535   95.878   95.258   94.670   94.112
 G, KJ/KG        -15900.0 -15869.2 -15843.9 -15822.6 -15804.7 -15789.5 -15776.3 -15765.0
 S, KJ/(KG)(K)    11.2634  11.2100  11.1623  11.1192  11.0799  11.0438  11.0105  10.9794

 M, (1/n)          18.316   18.347   18.377   18.406   18.433   18.460   18.485   18.509
 MW, MOL WT        14.484   14.512   14.540   14.566   14.591   14.615   14.638   14.661
 (dLV/dLP)t      -1.01777 -1.01920 -1.02054 -1.02179 -1.02297 -1.02408 -1.02513 -1.02613
 (dLV/dLT)p        1.1513   1.1629   1.1737   1.1837   1.1931   1.2019   1.2102   1.2180
 Cp, KJ/(KG)(K)    2.8650   2.9111   2.9534   2.9924   3.0286   3.0623   3.0937   3.1231
 GAMMAs            1.2380   1.2366   1.2353   1.2342   1.2331   1.2321   1.2312   1.2304
 SON VEL,M/SEC      912.0    912.0    912.1    912.1    912.2    912.2    912.3    912.4

 MASS FRACTIONS

 CH4              0.01194  0.01301  0.01403  0.01501  0.01594  0.01683  0.01769  0.01851
 *CO              0.37175  0.37093  0.37016  0.36943  0.36874  0.36809  0.36747  0.36687
 *CO2             0.00226  0.00243  0.00260  0.00276  0.00290  0.00304  0.00318  0.00330
 C2H2,acetylene   0.00000  0.00001  0.00001  0.00001  0.00001  0.00001  0.00001  0.00001
 CH3CN            0.00001  0.00001  0.00001  0.00001  0.00001  0.00001  0.00001  0.00001
 C2H4             0.00002  0.00002  0.00002  0.00002  0.00003  0.00003  0.00003  0.00003
 C2H6             0.00000  0.00000  0.00000  0.00000  0.00000  0.00000  0.00000  0.00001
 HCN              0.00055  0.00057  0.00058  0.00060  0.00061  0.00062  0.00064  0.00065
 HNC              0.00001  0.00001  0.00001  0.00001  0.00001  0.00001  0.00001  0.00001
 *H2              0.05367  0.05335  0.05305  0.05276  0.05248  0.05222  0.05197  0.05173
 H2O              0.00464  0.00502  0.00538  0.00573  0.00605  0.00635  0.00664  0.00692
 NH3              0.00021  0.00023  0.00025  0.00027  0.00029  0.00031  0.00033  0.00035
 *N2              0.38142  0.38140  0.38137  0.38135  0.38133  0.38130  0.38128  0.38126
 C(gr)            0.17352  0.17300  0.17252  0.17205  0.17159  0.17116  0.17074  0.17033

  * THERMODYNAMIC PROPERTIES FITTED TO 20000.K

 NOTE. WEIGHT FRACTION OF FUEL IN TOTAL FUELS AND OF OXIDANT IN TOTAL OXIDANTS









         THERMODYNAMIC EQUILIBRIUM COMBUSTION PROPERTIES AT ASSIGNED

                                   PRESSURES

 CASE = Boundless      

             REACTANT                    WT FRACTION      ENERGY      TEMP
                                          (SEE NOTE)     KJ/KG-MOL      K  
 OXIDANT     N2O(L),298.15K               1.0000000     65100.000    298.150
 FUEL        C32H66(a)                    0.9700000   -967800.000    298.150
 FUEL        C                            0.0300000    716680.000    298.150

 O/F=    1.50000  %FUEL= 40.000000  R,EQ.RATIO= 6.269847  PHI,EQ.RATIO= 6.269847

 THERMODYNAMIC PROPERTIES

 P, BAR            40.000   42.500   45.000   47.500   50.000   55.000   60.000   65.000
 T, K             1509.14  1512.12  1514.98  1517.74  1520.42  1525.51  1530.31  1534.84
 RHO, KG/CU M    5.9078 0 6.2723 0 6.6365 0 7.0005 0 7.3641 0 8.0905 0 8.8160 0 9.5405 0
 H, KJ/KG          770.66   770.66   770.66   770.66   770.66   770.66   770.66   770.66
 U, KJ/KG          93.581   93.075   92.591   92.128   91.684   90.847   90.072   89.350
 G, KJ/KG        -15755.2 -15746.6 -15739.1 -15732.5 -15726.8 -15717.2 -15709.7 -15703.9
 S, KJ/(KG)(K)    10.9505  10.9233  10.8977  10.8735  10.8506  10.8081  10.7693  10.7338

 M, (1/n)          18.532   18.555   18.577   18.598   18.619   18.658   18.695   18.731
 MW, MOL WT        14.682   14.703   14.724   14.744   14.763   14.800   14.835   14.869
 (dLV/dLP)t      -1.02708 -1.02798 -1.02885 -1.02967 -1.03046 -1.03195 -1.03332 -1.03460
 (dLV/dLT)p        1.2254   1.2324   1.2390   1.2454   1.2514   1.2627   1.2730   1.2826
 Cp, KJ/(KG)(K)    3.1508   3.1768   3.2013   3.2246   3.2466   3.2873   3.3243   3.3580
 GAMMAs            1.2296   1.2289   1.2282   1.2275   1.2269   1.2258   1.2247   1.2238
 SON VEL,M/SEC      912.4    912.5    912.6    912.6    912.7    912.8    913.0    913.1

 MASS FRACTIONS

 CH4              0.01931  0.02007  0.02082  0.02153  0.02223  0.02356  0.02482  0.02601
 *CO              0.36631  0.36576  0.36524  0.36474  0.36426  0.36334  0.36248  0.36168
 *CO2             0.00342  0.00354  0.00365  0.00375  0.00386  0.00405  0.00423  0.00440
 C2H2,acetylene   0.00001  0.00001  0.00001  0.00001  0.00001  0.00001  0.00001  0.00001
 CH3CN            0.00001  0.00001  0.00001  0.00001  0.00001  0.00002  0.00002  0.00002
 C2H4             0.00004  0.00004  0.00004  0.00004  0.00004  0.00005  0.00005  0.00006
 C2H6             0.00001  0.00001  0.00001  0.00001  0.00001  0.00001  0.00001  0.00001
 HCN              0.00066  0.00068  0.00069  0.00070  0.00071  0.00073  0.00075  0.00077
 HNC              0.00001  0.00001  0.00001  0.00001  0.00001  0.00001  0.00001  0.00001
 HNCO             0.00000  0.00001  0.00001  0.00001  0.00001  0.00001  0.00001  0.00001
 *H2              0.05149  0.05127  0.05105  0.05084  0.05064  0.05025  0.04988  0.04953
 HCHO,formaldehy  0.00000  0.00000  0.00000  0.00000  0.00000  0.00000  0.00000  0.00001
 H2O              0.00719  0.00744  0.00769  0.00792  0.00815  0.00858  0.00898  0.00936
 NH3              0.00036  0.00038  0.00040  0.00042  0.00043  0.00046  0.00049  0.00052
 *N2              0.38124  0.38122  0.38119  0.38117  0.38115  0.38112  0.38108  0.38104
 C(gr)            0.16994  0.16956  0.16919  0.16883  0.16848  0.16781  0.16717  0.16656

  * THERMODYNAMIC PROPERTIES FITTED TO 20000.K

 NOTE. WEIGHT FRACTION OF FUEL IN TOTAL FUELS AND OF OXIDANT IN TOTAL OXIDANTS









         THERMODYNAMIC EQUILIBRIUM COMBUSTION PROPERTIES AT ASSIGNED

                                   PRESSURES

 CASE = Boundless      

             REACTANT                    WT FRACTION      ENERGY      TEMP
                                          (SEE NOTE)     KJ/KG-MOL      K  
 OXIDANT     N2O(L),298.15K               1.0000000     65100.000    298.150
 FUEL        C32H66(a)                    0.9700000   -967800.000    298.150
 FUEL        C                            0.0300000    716680.000    298.150

 O/F=    1.50000  %FUEL= 40.000000  R,EQ.RATIO= 6.269847  PHI,EQ.RATIO= 6.269847

 THERMODYNAMIC PROPERTIES

 P, BAR            70.000
 T, K             1539.14
 RHO, KG/CU M    1.0264 1
 H, KJ/KG          770.66
 U, KJ/KG          88.675
 G, KJ/KG        -15699.5
 S, KJ/(KG)(K)    10.7009

 M, (1/n)          18.765
 MW, MOL WT        14.901
 (dLV/dLP)t      -1.03579
 (dLV/dLT)p        1.2914
 Cp, KJ/(KG)(K)    3.3889
 GAMMAs            1.2229
 SON VEL,M/SEC      913.2

 MASS FRACTIONS

 CH4              0.02714
 *CO              0.36091
 *CO2             0.00456
 C2H2,acetylene   0.00001
 CH3CN            0.00002
 C2H4             0.00006
 C2H6             0.00001
 HCN              0.00079
 HNC              0.00001
 HNCO             0.00001
 *H2              0.04919
 HCHO,formaldehy  0.00001
 H2O              0.00972
 NH3              0.00055
 *N2              0.38101
 C(gr)            0.16597

  * THERMODYNAMIC PROPERTIES FITTED TO 20000.K

 NOTE. WEIGHT FRACTION OF FUEL IN TOTAL FUELS AND OF OXIDANT IN TOTAL OXIDANTS









         THERMODYNAMIC EQUILIBRIUM COMBUSTION PROPERTIES AT ASSIGNED

                                   PRESSURES

 CASE = Boundless      

             REACTANT                    WT FRACTION      ENERGY      TEMP
                                          (SEE NOTE)     KJ/KG-MOL      K  
 OXIDANT     N2O(L),298.15K               1.0000000     65100.000    298.150
 FUEL        C32H66(a)                    0.9700000   -967800.000    298.150
 FUEL        C                            0.0300000    716680.000    298.150

 O/F=    2.00000  %FUEL= 33.333333  R,EQ.RATIO= 4.702385  PHI,EQ.RATIO= 4.702385

 THERMODYNAMIC PROPERTIES

 P, BAR            1.0000   2.5000   5.0000   7.5000   10.000   12.500   15.000   17.500
 T, K             1659.01  1660.47  1662.69  1664.82  1666.87  1668.87  1670.81  1672.69
 RHO, KG/CU M    1.3439-1 3.3587-1 6.7140-1 1.0066 0 1.3416 0 1.6763 0 2.0107 0 2.3449 0
 H, KJ/KG          888.73   888.73   888.73   888.73   888.73   888.73   888.73   888.73
 U, KJ/KG          144.65   144.39   144.02   143.67   143.34   143.03   142.72   142.42
 G, KJ/KG        -20088.0 -19424.3 -18935.0 -18658.1 -18467.7 -18324.4 -18210.7 -18117.2
 S, KJ/(KG)(K)    12.6442  12.2333  11.9227  11.7412  11.6125  11.5127  11.4313  11.3625

 M, (1/n)          18.538   18.548   18.563   18.579   18.593   18.608   18.622   18.635
 MW, MOL WT        16.000   16.010   16.028   16.044   16.061   16.077   16.092   16.107
 (dLV/dLP)t      -1.00036 -1.00086 -1.00168 -1.00248 -1.00324 -1.00398 -1.00470 -1.00539
 (dLV/dLT)p        1.0031   1.0066   1.0126   1.0184   1.0239   1.0293   1.0345   1.0396
 Cp, KJ/(KG)(K)    2.1326   2.1435   2.1643   2.1849   2.2049   2.2243   2.2430   2.2610
 GAMMAs            1.2678   1.2675   1.2666   1.2657   1.2649   1.2640   1.2632   1.2624
 SON VEL,M/SEC      971.3    971.3    971.2    971.1    971.0    970.9    970.8    970.6

 MASS FRACTIONS

 CH4              0.00022  0.00053  0.00105  0.00156  0.00205  0.00253  0.00300  0.00345
 *CO              0.42411  0.42388  0.42350  0.42313  0.42278  0.42243  0.42209  0.42177
 *CO2             0.00004  0.00009  0.00017  0.00025  0.00033  0.00041  0.00048  0.00056
 C2H2,acetylene   0.00003  0.00003  0.00003  0.00003  0.00003  0.00003  0.00003  0.00003
 CH3CN            0.00000  0.00000  0.00000  0.00000  0.00000  0.00000  0.00001  0.00001
 C2H4             0.00000  0.00000  0.00000  0.00001  0.00001  0.00001  0.00001  0.00002
 HCN              0.00171  0.00172  0.00174  0.00176  0.00178  0.00180  0.00181  0.00183
 HNC              0.00004  0.00004  0.00004  0.00004  0.00004  0.00004  0.00004  0.00004
 *H2              0.04757  0.04748  0.04733  0.04718  0.04703  0.04689  0.04675  0.04662
 H2O              0.00007  0.00018  0.00036  0.00052  0.00069  0.00085  0.00100  0.00115
 NH3              0.00001  0.00001  0.00003  0.00004  0.00005  0.00007  0.00008  0.00009
 *N2              0.42341  0.42340  0.42337  0.42335  0.42333  0.42331  0.42329  0.42327
 C(gr)            0.10279  0.10263  0.10237  0.10211  0.10186  0.10162  0.10138  0.10115

  * THERMODYNAMIC PROPERTIES FITTED TO 20000.K

 NOTE. WEIGHT FRACTION OF FUEL IN TOTAL FUELS AND OF OXIDANT IN TOTAL OXIDANTS









         THERMODYNAMIC EQUILIBRIUM COMBUSTION PROPERTIES AT ASSIGNED

                                   PRESSURES

 CASE = Boundless      

             REACTANT                    WT FRACTION      ENERGY      TEMP
                                          (SEE NOTE)     KJ/KG-MOL      K  
 OXIDANT     N2O(L),298.15K               1.0000000     65100.000    298.150
 FUEL        C32H66(a)                    0.9700000   -967800.000    298.150
 FUEL        C                            0.0300000    716680.000    298.150

 O/F=    2.00000  %FUEL= 33.333333  R,EQ.RATIO= 4.702385  PHI,EQ.RATIO= 4.702385

 THERMODYNAMIC PROPERTIES

 P, BAR            20.000   22.500   25.000   27.500   30.000   32.500   35.000   37.500
 T, K             1674.54  1676.33  1678.09  1679.81  1681.49  1683.13  1684.74  1686.31
 RHO, KG/CU M    2.6788 0 3.0126 0 3.3461 0 3.6794 0 4.0125 0 4.3455 0 4.6782 0 5.0108 0
 H, KJ/KG          888.73   888.73   888.73   888.73   888.73   888.73   888.73   888.73
 U, KJ/KG          142.14   141.86   141.59   141.33   141.08   140.83   140.59   140.35
 G, KJ/KG        -18038.4 -17970.7 -17911.7 -17859.7 -17813.4 -17771.8 -17734.1 -17699.9
 S, KJ/(KG)(K)    11.3029  11.2504  11.2035  11.1611  11.1224  11.0868  11.0539  11.0232

 M, (1/n)          18.649   18.662   18.675   18.687   18.699   18.711   18.723   18.735
 MW, MOL WT        16.122   16.137   16.151   16.165   16.179   16.193   16.206   16.219
 (dLV/dLP)t      -1.00606 -1.00671 -1.00735 -1.00796 -1.00856 -1.00915 -1.00971 -1.01027
 (dLV/dLT)p        1.0444   1.0491   1.0537   1.0581   1.0624   1.0666   1.0707   1.0746
 Cp, KJ/(KG)(K)    2.2784   2.2953   2.3116   2.3273   2.3426   2.3574   2.3718   2.3857
 GAMMAs            1.2617   1.2609   1.2603   1.2596   1.2589   1.2583   1.2577   1.2572
 SON VEL,M/SEC      970.5    970.4    970.4    970.3    970.2    970.1    970.0    970.0

 MASS FRACTIONS

 CH4              0.00390  0.00434  0.00476  0.00518  0.00559  0.00599  0.00638  0.00677
 *CO              0.42145  0.42113  0.42083  0.42053  0.42024  0.41996  0.41968  0.41941
 *CO2             0.00063  0.00070  0.00076  0.00083  0.00089  0.00096  0.00102  0.00108
 C2H2,acetylene   0.00003  0.00004  0.00004  0.00004  0.00004  0.00004  0.00004  0.00004
 CH3CN            0.00001  0.00001  0.00001  0.00001  0.00001  0.00001  0.00001  0.00001
 C2H4             0.00002  0.00002  0.00002  0.00003  0.00003  0.00003  0.00003  0.00004
 HCN              0.00184  0.00186  0.00188  0.00189  0.00191  0.00192  0.00194  0.00195
 HNC              0.00004  0.00005  0.00005  0.00005  0.00005  0.00005  0.00005  0.00005
 *H2              0.04648  0.04635  0.04623  0.04611  0.04598  0.04587  0.04575  0.04564
 H2O              0.00130  0.00145  0.00159  0.00172  0.00186  0.00199  0.00211  0.00224
 NH3              0.00011  0.00012  0.00013  0.00014  0.00015  0.00017  0.00018  0.00019
 *N2              0.42325  0.42323  0.42321  0.42319  0.42318  0.42316  0.42314  0.42312
 C(gr)            0.10092  0.10070  0.10048  0.10027  0.10006  0.09985  0.09965  0.09945

  * THERMODYNAMIC PROPERTIES FITTED TO 20000.K

 NOTE. WEIGHT FRACTION OF FUEL IN TOTAL FUELS AND OF OXIDANT IN TOTAL OXIDANTS









         THERMODYNAMIC EQUILIBRIUM COMBUSTION PROPERTIES AT ASSIGNED

                                   PRESSURES

 CASE = Boundless      

             REACTANT                    WT FRACTION      ENERGY      TEMP
                                          (SEE NOTE)     KJ/KG-MOL      K  
 OXIDANT     N2O(L),298.15K               1.0000000     65100.000    298.150
 FUEL        C32H66(a)                    0.9700000   -967800.000    298.150
 FUEL        C                            0.0300000    716680.000    298.150

 O/F=    2.00000  %FUEL= 33.333333  R,EQ.RATIO= 4.702385  PHI,EQ.RATIO= 4.702385

 THERMODYNAMIC PROPERTIES

 P, BAR            40.000   42.500   45.000   47.500   50.000   55.000   60.000   65.000
 T, K             1687.86  1689.38  1690.86  1692.32  1693.76  1696.55  1699.25  1701.86
 RHO, KG/CU M    5.3432 0 5.6755 0 6.0076 0 6.3396 0 6.6714 0 7.3346 0 7.9972 0 8.6594 0
 H, KJ/KG          888.73   888.73   888.73   888.73   888.73   888.73   888.73   888.73
 U, KJ/KG          140.12   139.90   139.68   139.47   139.26   138.86   138.47   138.10
 G, KJ/KG        -17668.6 -17639.9 -17613.3 -17588.8 -17566.0 -17524.9 -17488.9 -17457.0
 S, KJ/(KG)(K)    10.9946  10.9677  10.9424  10.9184  10.8957  10.8536  10.8152  10.7798

 M, (1/n)          18.746   18.758   18.769   18.780   18.790   18.811   18.831   18.851
 MW, MOL WT        16.232   16.244   16.257   16.269   16.281   16.305   16.328   16.350
 (dLV/dLP)t      -1.01081 -1.01133 -1.01185 -1.01235 -1.01284 -1.01378 -1.01469 -1.01556
 (dLV/dLT)p        1.0785   1.0822   1.0858   1.0894   1.0929   1.0995   1.1059   1.1120
 Cp, KJ/(KG)(K)    2.3992   2.4124   2.4251   2.4376   2.4497   2.4729   2.4950   2.5161
 GAMMAs            1.2566   1.2561   1.2555   1.2550   1.2545   1.2536   1.2527   1.2519
 SON VEL,M/SEC      969.9    969.8    969.8    969.7    969.7    969.6    969.5    969.4

 MASS FRACTIONS

 CH3              0.00000  0.00000  0.00000  0.00000  0.00000  0.00001  0.00001  0.00001
 CH4              0.00715  0.00752  0.00788  0.00824  0.00859  0.00928  0.00995  0.01059
 *CO              0.41914  0.41888  0.41863  0.41838  0.41813  0.41765  0.41719  0.41674
 *CO2             0.00114  0.00119  0.00125  0.00131  0.00136  0.00147  0.00157  0.00167
 C2H2,acetylene   0.00004  0.00004  0.00004  0.00004  0.00004  0.00004  0.00004  0.00004
 CH2CO,ketene     0.00000  0.00000  0.00000  0.00000  0.00000  0.00000  0.00000  0.00001
 CH3CN            0.00002  0.00002  0.00002  0.00002  0.00002  0.00002  0.00002  0.00003
 C2H4             0.00004  0.00004  0.00004  0.00005  0.00005  0.00005  0.00006  0.00006
 HCN              0.00196  0.00198  0.00199  0.00201  0.00202  0.00205  0.00207  0.00210
 HNC              0.00005  0.00005  0.00005  0.00005  0.00005  0.00005  0.00005  0.00005
 HNCO             0.00001  0.00001  0.00001  0.00001  0.00001  0.00001  0.00001  0.00001
 *H2              0.04552  0.04541  0.04531  0.04520  0.04510  0.04489  0.04470  0.04450
 HCHO,formaldehy  0.00000  0.00000  0.00000  0.00000  0.00000  0.00000  0.00000  0.00001
 H2O              0.00236  0.00248  0.00260  0.00272  0.00283  0.00305  0.00326  0.00347
 NH3              0.00020  0.00021  0.00022  0.00023  0.00024  0.00027  0.00029  0.00031
 *N2              0.42311  0.42309  0.42307  0.42306  0.42304  0.42301  0.42297  0.42294
 C(gr)            0.09925  0.09906  0.09887  0.09869  0.09851  0.09815  0.09780  0.09747

  * THERMODYNAMIC PROPERTIES FITTED TO 20000.K

 NOTE. WEIGHT FRACTION OF FUEL IN TOTAL FUELS AND OF OXIDANT IN TOTAL OXIDANTS









         THERMODYNAMIC EQUILIBRIUM COMBUSTION PROPERTIES AT ASSIGNED

                                   PRESSURES

 CASE = Boundless      

             REACTANT                    WT FRACTION      ENERGY      TEMP
                                          (SEE NOTE)     KJ/KG-MOL      K  
 OXIDANT     N2O(L),298.15K               1.0000000     65100.000    298.150
 FUEL        C32H66(a)                    0.9700000   -967800.000    298.150
 FUEL        C                            0.0300000    716680.000    298.150

 O/F=    2.00000  %FUEL= 33.333333  R,EQ.RATIO= 4.702385  PHI,EQ.RATIO= 4.702385

 THERMODYNAMIC PROPERTIES

 P, BAR            70.000
 T, K             1704.39
 RHO, KG/CU M    9.3211 0
 H, KJ/KG          888.73
 U, KJ/KG          137.75
 G, KJ/KG        -17428.6
 S, KJ/(KG)(K)    10.7472

 M, (1/n)          18.870
 MW, MOL WT        16.372
 (dLV/dLP)t      -1.01639
 (dLV/dLT)p        1.1178
 Cp, KJ/(KG)(K)    2.5361
 GAMMAs            1.2511
 SON VEL,M/SEC      969.3

 MASS FRACTIONS

 CH3              0.00001
 CH4              0.01122
 *CO              0.41631
 *CO2             0.00176
 C2H2,acetylene   0.00004
 CH2CO,ketene     0.00001
 CH3CN            0.00003
 C2H4             0.00007
 HCN              0.00212
 HNC              0.00006
 HNCO             0.00001
 *H2              0.04432
 HCHO,formaldehy  0.00001
 H2O              0.00367
 NH3              0.00033
 *N2              0.42291
 C(gr)            0.09714

  * THERMODYNAMIC PROPERTIES FITTED TO 20000.K

 NOTE. WEIGHT FRACTION OF FUEL IN TOTAL FUELS AND OF OXIDANT IN TOTAL OXIDANTS









         THERMODYNAMIC EQUILIBRIUM COMBUSTION PROPERTIES AT ASSIGNED

                                   PRESSURES

 CASE = Boundless      

             REACTANT                    WT FRACTION      ENERGY      TEMP
                                          (SEE NOTE)     KJ/KG-MOL      K  
 OXIDANT     N2O(L),298.15K               1.0000000     65100.000    298.150
 FUEL        C32H66(a)                    0.9700000   -967800.000    298.150
 FUEL        C                            0.0300000    716680.000    298.150

 O/F=    2.25000  %FUEL= 30.769231  R,EQ.RATIO= 4.179898  PHI,EQ.RATIO= 4.179898

 THERMODYNAMIC PROPERTIES

 P, BAR            1.0000   2.5000   5.0000   7.5000   10.000   12.500   15.000   17.500
 T, K             1754.95  1756.07  1757.55  1758.92  1760.23  1761.51  1762.77  1764.00
 RHO, KG/CU M    1.2859-1 3.2137-1 6.4253-1 9.6354-1 1.2844 0 1.6051 0 1.9257 0 2.2462 0
 H, KJ/KG          934.15   934.15   934.15   934.15   934.15   934.15   934.15   934.15
 U, KJ/KG          156.45   156.22   155.98   155.77   155.58   155.39   155.21   155.04
 G, KJ/KG        -21232.5 -20533.8 -20012.3 -19712.9 -19504.3 -19345.3 -19217.7 -19111.6
 S, KJ/(KG)(K)    12.6309  12.2249  11.9180  11.7385  11.6112  11.5125  11.4319  11.3638

 M, (1/n)          18.763   18.769   18.779   18.788   18.798   18.807   18.816   18.825
 MW, MOL WT        16.834   16.842   16.854   16.866   16.877   16.888   16.899   16.910
 (dLV/dLP)t      -1.00025 -1.00055 -1.00105 -1.00154 -1.00202 -1.00250 -1.00296 -1.00342
 (dLV/dLT)p        1.0026   1.0043   1.0076   1.0109   1.0142   1.0174   1.0206   1.0237
 Cp, KJ/(KG)(K)    2.1017   2.1033   2.1124   2.1228   2.1335   2.1441   2.1546   2.1650
 GAMMAs            1.2686   1.2689   1.2687   1.2682   1.2678   1.2673   1.2669   1.2664
 SON VEL,M/SEC      993.3    993.5    993.6    993.6    993.5    993.4    993.4    993.3

 MASS FRACTIONS

 CH4              0.00013  0.00032  0.00064  0.00095  0.00126  0.00156  0.00186  0.00216
 *CO              0.44050  0.44037  0.44015  0.43993  0.43972  0.43951  0.43930  0.43910
 *CO2             0.00002  0.00005  0.00010  0.00015  0.00019  0.00024  0.00029  0.00033
 C2H2,acetylene   0.00007  0.00007  0.00007  0.00007  0.00007  0.00007  0.00007  0.00007
 CH3CN            0.00000  0.00000  0.00000  0.00000  0.00000  0.00001  0.00001  0.00001
 C2H4             0.00000  0.00000  0.00000  0.00001  0.00001  0.00001  0.00001  0.00002
 *H               0.00001  0.00001  0.00000  0.00000  0.00000  0.00000  0.00000  0.00000
 HCN              0.00280  0.00281  0.00283  0.00285  0.00286  0.00288  0.00289  0.00291
 HNC              0.00008  0.00008  0.00009  0.00009  0.00009  0.00009  0.00009  0.00009
 *H2              0.04388  0.04382  0.04373  0.04364  0.04355  0.04346  0.04337  0.04328
 H2O              0.00004  0.00010  0.00020  0.00030  0.00040  0.00050  0.00059  0.00068
 NH3              0.00000  0.00001  0.00002  0.00003  0.00004  0.00005  0.00006  0.00007
 *N2              0.43915  0.43913  0.43911  0.43910  0.43908  0.43906  0.43904  0.43903
 C(gr)            0.07332  0.07322  0.07305  0.07288  0.07272  0.07256  0.07240  0.07224

  * THERMODYNAMIC PROPERTIES FITTED TO 20000.K

 NOTE. WEIGHT FRACTION OF FUEL IN TOTAL FUELS AND OF OXIDANT IN TOTAL OXIDANTS









         THERMODYNAMIC EQUILIBRIUM COMBUSTION PROPERTIES AT ASSIGNED

                                   PRESSURES

 CASE = Boundless      

             REACTANT                    WT FRACTION      ENERGY      TEMP
                                          (SEE NOTE)     KJ/KG-MOL      K  
 OXIDANT     N2O(L),298.15K               1.0000000     65100.000    298.150
 FUEL        C32H66(a)                    0.9700000   -967800.000    298.150
 FUEL        C                            0.0300000    716680.000    298.150

 O/F=    2.25000  %FUEL= 30.769231  R,EQ.RATIO= 4.179898  PHI,EQ.RATIO= 4.179898

 THERMODYNAMIC PROPERTIES

 P, BAR            20.000   22.500   25.000   27.500   30.000   32.500   35.000   37.500
 T, K             1765.20  1766.39  1767.56  1768.70  1769.84  1770.95  1772.05  1773.13
 RHO, KG/CU M    2.5665 0 2.8867 0 3.2068 0 3.5268 0 3.8466 0 4.1664 0 4.4860 0 4.8055 0
 H, KJ/KG          934.15   934.15   934.15   934.15   934.15   934.15   934.15   934.15
 U, KJ/KG          154.87   154.71   154.55   154.39   154.24   154.09   153.94   153.80
 G, KJ/KG        -19021.2 -18942.8 -18873.8 -18812.4 -18757.1 -18707.1 -18661.4 -18619.6
 S, KJ/(KG)(K)    11.3049  11.2529  11.2064  11.1644  11.1260  11.0908  11.0581  11.0278

 M, (1/n)          18.834   18.843   18.851   18.860   18.868   18.876   18.884   18.893
 MW, MOL WT        16.921   16.932   16.942   16.953   16.963   16.973   16.983   16.993
 (dLV/dLP)t      -1.00387 -1.00430 -1.00473 -1.00516 -1.00557 -1.00598 -1.00638 -1.00677
 (dLV/dLT)p        1.0267   1.0297   1.0326   1.0355   1.0383   1.0410   1.0437   1.0464
 Cp, KJ/(KG)(K)    2.1752   2.1852   2.1950   2.2046   2.2140   2.2232   2.2323   2.2412
 GAMMAs            1.2659   1.2655   1.2651   1.2646   1.2642   1.2638   1.2634   1.2630
 SON VEL,M/SEC      993.2    993.2    993.1    993.0    993.0    992.9    992.8    992.8

 MASS FRACTIONS

 CH3              0.00000  0.00000  0.00000  0.00001  0.00001  0.00001  0.00001  0.00001
 CH4              0.00245  0.00273  0.00301  0.00329  0.00356  0.00383  0.00410  0.00436
 *CO              0.43890  0.43870  0.43851  0.43832  0.43813  0.43795  0.43776  0.43758
 *CO2             0.00038  0.00042  0.00046  0.00051  0.00055  0.00059  0.00063  0.00067
 C2H2,acetylene   0.00007  0.00007  0.00007  0.00008  0.00008  0.00008  0.00008  0.00008
 CH3CN            0.00001  0.00001  0.00001  0.00001  0.00001  0.00001  0.00002  0.00002
 C2H4             0.00002  0.00002  0.00002  0.00003  0.00003  0.00003  0.00003  0.00004
 HCN              0.00292  0.00294  0.00295  0.00296  0.00298  0.00299  0.00301  0.00302
 HNC              0.00009  0.00009  0.00009  0.00009  0.00009  0.00009  0.00009  0.00009
 HNCO             0.00000  0.00000  0.00000  0.00000  0.00000  0.00000  0.00000  0.00001
 *H2              0.04320  0.04311  0.04303  0.04295  0.04287  0.04279  0.04271  0.04263
 H2O              0.00078  0.00087  0.00095  0.00104  0.00113  0.00121  0.00130  0.00138
 NH3              0.00008  0.00009  0.00010  0.00011  0.00012  0.00013  0.00014  0.00014
 *N2              0.43901  0.43900  0.43898  0.43896  0.43895  0.43893  0.43892  0.43890
 C(gr)            0.07209  0.07194  0.07179  0.07164  0.07149  0.07135  0.07121  0.07107

  * THERMODYNAMIC PROPERTIES FITTED TO 20000.K

 NOTE. WEIGHT FRACTION OF FUEL IN TOTAL FUELS AND OF OXIDANT IN TOTAL OXIDANTS









         THERMODYNAMIC EQUILIBRIUM COMBUSTION PROPERTIES AT ASSIGNED

                                   PRESSURES

 CASE = Boundless      

             REACTANT                    WT FRACTION      ENERGY      TEMP
                                          (SEE NOTE)     KJ/KG-MOL      K  
 OXIDANT     N2O(L),298.15K               1.0000000     65100.000    298.150
 FUEL        C32H66(a)                    0.9700000   -967800.000    298.150
 FUEL        C                            0.0300000    716680.000    298.150

 O/F=    2.25000  %FUEL= 30.769231  R,EQ.RATIO= 4.179898  PHI,EQ.RATIO= 4.179898

 THERMODYNAMIC PROPERTIES

 P, BAR            40.000   42.500   45.000   47.500   50.000   55.000   60.000   65.000
 T, K             1774.20  1775.26  1776.30  1777.32  1778.34  1780.33  1782.27  1784.16
 RHO, KG/CU M    5.1250 0 5.4443 0 5.7636 0 6.0827 0 6.4018 0 7.0396 0 7.6771 0 8.3143 0
 H, KJ/KG          934.15   934.15   934.15   934.15   934.15   934.15   934.15   934.15
 U, KJ/KG          153.66   153.52   153.38   153.24   153.11   152.85   152.60   152.36
 G, KJ/KG        -18581.0 -18545.2 -18512.0 -18481.0 -18452.0 -18399.2 -18352.2 -18310.2
 S, KJ/(KG)(K)    10.9994  10.9727  10.9476  10.9238  10.9013  10.8594  10.8213  10.7862

 M, (1/n)          18.900   18.908   18.916   18.924   18.931   18.946   18.961   18.975
 MW, MOL WT        17.003   17.012   17.022   17.031   17.041   17.059   17.077   17.095
 (dLV/dLP)t      -1.00715 -1.00753 -1.00790 -1.00827 -1.00863 -1.00933 -1.01001 -1.01067
 (dLV/dLT)p        1.0490   1.0515   1.0540   1.0565   1.0589   1.0636   1.0681   1.0725
 Cp, KJ/(KG)(K)    2.2499   2.2584   2.2668   2.2751   2.2831   2.2989   2.3141   2.3287
 GAMMAs            1.2626   1.2622   1.2618   1.2615   1.2611   1.2604   1.2598   1.2591
 SON VEL,M/SEC      992.7    992.6    992.6    992.5    992.5    992.4    992.2    992.1

 MASS FRACTIONS

 CH3              0.00001  0.00001  0.00001  0.00001  0.00001  0.00001  0.00001  0.00001
 CH4              0.00462  0.00487  0.00513  0.00538  0.00562  0.00611  0.00658  0.00704
 *CO              0.43741  0.43723  0.43706  0.43689  0.43672  0.43639  0.43607  0.43575
 *CO2             0.00071  0.00075  0.00079  0.00083  0.00086  0.00094  0.00101  0.00108
 C2H2,acetylene   0.00008  0.00008  0.00008  0.00008  0.00008  0.00008  0.00008  0.00008
 CH2CO,ketene     0.00000  0.00000  0.00000  0.00000  0.00000  0.00001  0.00001  0.00001
 CH3CN            0.00002  0.00002  0.00002  0.00002  0.00002  0.00002  0.00003  0.00003
 C2H4             0.00004  0.00004  0.00004  0.00005  0.00005  0.00005  0.00006  0.00006
 HCN              0.00303  0.00305  0.00306  0.00307  0.00308  0.00311  0.00313  0.00316
 HNC              0.00009  0.00010  0.00010  0.00010  0.00010  0.00010  0.00010  0.00010
 HNCO             0.00001  0.00001  0.00001  0.00001  0.00001  0.00001  0.00001  0.00001
 *H2              0.04255  0.04248  0.04240  0.04233  0.04226  0.04211  0.04197  0.04183
 HCHO,formaldehy  0.00000  0.00000  0.00000  0.00000  0.00000  0.00000  0.00000  0.00001
 H2O              0.00146  0.00154  0.00162  0.00170  0.00177  0.00193  0.00207  0.00222
 NH3              0.00015  0.00016  0.00017  0.00018  0.00019  0.00021  0.00022  0.00024
 *N2              0.43889  0.43887  0.43886  0.43884  0.43883  0.43880  0.43877  0.43874
 C(gr)            0.07093  0.07079  0.07066  0.07052  0.07039  0.07013  0.06988  0.06963

  * THERMODYNAMIC PROPERTIES FITTED TO 20000.K

 NOTE. WEIGHT FRACTION OF FUEL IN TOTAL FUELS AND OF OXIDANT IN TOTAL OXIDANTS









         THERMODYNAMIC EQUILIBRIUM COMBUSTION PROPERTIES AT ASSIGNED

                                   PRESSURES

 CASE = Boundless      

             REACTANT                    WT FRACTION      ENERGY      TEMP
                                          (SEE NOTE)     KJ/KG-MOL      K  
 OXIDANT     N2O(L),298.15K               1.0000000     65100.000    298.150
 FUEL        C32H66(a)                    0.9700000   -967800.000    298.150
 FUEL        C                            0.0300000    716680.000    298.150

 O/F=    2.25000  %FUEL= 30.769231  R,EQ.RATIO= 4.179898  PHI,EQ.RATIO= 4.179898

 THERMODYNAMIC PROPERTIES

 P, BAR            70.000
 T, K             1786.02
 RHO, KG/CU M    8.9512 0
 H, KJ/KG          934.15
 U, KJ/KG          152.13
 G, KJ/KG        -18272.2
 S, KJ/(KG)(K)    10.7537

 M, (1/n)          18.989
 MW, MOL WT        17.112
 (dLV/dLP)t      -1.01131
 (dLV/dLT)p        1.0768
 Cp, KJ/(KG)(K)    2.3429
 GAMMAs            1.2585
 SON VEL,M/SEC      992.0

 MASS FRACTIONS

 CH3              0.00001
 CH4              0.00749
 *CO              0.43544
 *CO2             0.00115
 C2H2,acetylene   0.00008
 CH2CO,ketene     0.00001
 CH3CN            0.00003
 C2H4             0.00007
 HCN              0.00318
 HNC              0.00010
 HNCO             0.00001
 *H2              0.04170
 HCHO,formaldehy  0.00001
 H2O              0.00236
 NH3              0.00026
 *N2              0.43872
 C(gr)            0.06939

  * THERMODYNAMIC PROPERTIES FITTED TO 20000.K

 NOTE. WEIGHT FRACTION OF FUEL IN TOTAL FUELS AND OF OXIDANT IN TOTAL OXIDANTS









         THERMODYNAMIC EQUILIBRIUM COMBUSTION PROPERTIES AT ASSIGNED

                                   PRESSURES

 CASE = Boundless      

             REACTANT                    WT FRACTION      ENERGY      TEMP
                                          (SEE NOTE)     KJ/KG-MOL      K  
 OXIDANT     N2O(L),298.15K               1.0000000     65100.000    298.150
 FUEL        C32H66(a)                    0.9700000   -967800.000    298.150
 FUEL        C                            0.0300000    716680.000    298.150

 O/F=    2.50000  %FUEL= 28.571429  R,EQ.RATIO= 3.761908  PHI,EQ.RATIO= 3.761908

 THERMODYNAMIC PROPERTIES

[...]
 (dLV/dLP)t      -1.00166 -1.00120 -1.00094 -1.00081 -1.00073 -1.00068 -1.00064 -1.00061
 (dLV/dLT)p        1.0468   1.0338   1.0263   1.0227   1.0205   1.0189   1.0177   1.0167
 Cp, KJ/(KG)(K)    1.8170   1.7151   1.6566   1.6284   1.6108   1.5983   1.5888   1.5813
 GAMMAs            1.2050   1.2138   1.2193   1.2222   1.2240   1.2253   1.2264   1.2272
 SON VEL,M/SEC      894.6    900.1    903.4    905.1    906.2    907.0    907.6    908.1

 MASS FRACTIONS

 *CO              0.00148  0.00103  0.00077  0.00064  0.00057  0.00051  0.00047  0.00044
 *CO2             0.07923  0.07994  0.08035  0.08054  0.08066  0.08075  0.08081  0.08086
 *H               0.00001  0.00000  0.00000  0.00000  0.00000  0.00000  0.00000  0.00000
 HO2              0.00001  0.00001  0.00001  0.00001  0.00002  0.00002  0.00002  0.00002
 *H2              0.00002  0.00001  0.00001  0.00001  0.00001  0.00001  0.00001  0.00001
 H2O              0.03095  0.03135  0.03162  0.03176  0.03185  0.03192  0.03197  0.03202
 *NO              0.01628  0.01674  0.01702  0.01716  0.01725  0.01731  0.01736  0.01740
 NO2              0.00003  0.00005  0.00006  0.00008  0.00009  0.00010  0.00011  0.00012
 *N2              0.61234  0.61212  0.61198  0.61191  0.61187  0.61183  0.61181  0.61179
 N2O              0.00000  0.00000  0.00000  0.00000  0.00000  0.00000  0.00000  0.00001
 *O               0.00157  0.00107  0.00080  0.00066  0.00058  0.00053  0.00049  0.00045
 *OH              0.00387  0.00325  0.00283  0.00260  0.00244  0.00233  0.00224  0.00216
 *O2              0.25421  0.25441  0.25454  0.25461  0.25466  0.25469  0.25471  0.25473

  * THERMODYNAMIC PROPERTIES FITTED TO 20000.K

 NOTE. WEIGHT FRACTION OF FUEL IN TOTAL FUELS AND OF OXIDANT IN TOTAL OXIDANTS









         THERMODYNAMIC EQUILIBRIUM COMBUSTION PROPERTIES AT ASSIGNED

                                   PRESSURES

 CASE = Boundless      

             REACTANT                    WT FRACTION      ENERGY      TEMP
                                          (SEE NOTE)     KJ/KG-MOL      K  
 OXIDANT     N2O(L),298.15K               1.0000000     65100.000    298.150
 FUEL        C32H66(a)                    0.9700000   -967800.000    298.150
 FUEL        C                            0.0300000    716680.000    298.150

 O/F=   37.50000  %FUEL=  2.597403  R,EQ.RATIO= 0.250794  PHI,EQ.RATIO= 0.250794

 THERMODYNAMIC PROPERTIES

 P, BAR            20.000   22.500   25.000   27.500   30.000   32.500   35.000   37.500
 T, K             2365.79  2366.57  2367.25  2367.84  2368.36  2368.83  2369.25  2369.64
 RHO, KG/CU M    2.9756 0 3.3467 0 3.7177 0 4.0886 0 4.4595 0 4.8304 0 5.2012 0 5.5719 0
 H, KJ/KG         1433.11  1433.11  1433.11  1433.11  1433.11  1433.11  1433.11  1433.11
 U, KJ/KG          760.99   760.80   760.65   760.51   760.39   760.28   760.19   760.10
 G, KJ/KG        -18796.1 -18723.6 -18658.5 -18599.4 -18545.3 -18495.4 -18449.1 -18405.9
 S, KJ/(KG)(K)     8.5507   8.5173   8.4873   8.4603   8.4355   8.4128   8.3918   8.3722

 M, (1/n)          29.266   29.268   29.269   29.271   29.272   29.273   29.274   29.275
 MW, MOL WT        29.266   29.268   29.269   29.271   29.272   29.273   29.274   29.275
 (dLV/dLP)t      -1.00058 -1.00056 -1.00054 -1.00052 -1.00051 -1.00050 -1.00048 -1.00047
 (dLV/dLT)p        1.0159   1.0153   1.0147   1.0142   1.0137   1.0133   1.0130   1.0127
 Cp, KJ/(KG)(K)    1.5751   1.5699   1.5655   1.5616   1.5582   1.5551   1.5523   1.5498
 GAMMAs            1.2279   1.2284   1.2289   1.2294   1.2298   1.2301   1.2304   1.2307
 SON VEL,M/SEC      908.4    908.8    909.1    909.3    909.6    909.8    909.9    910.1

 MASS FRACTIONS

 *CO              0.00041  0.00039  0.00037  0.00036  0.00034  0.00033  0.00032  0.00031
 *CO2             0.08090  0.08094  0.08097  0.08099  0.08101  0.08103  0.08105  0.08107
 HO2              0.00002  0.00002  0.00002  0.00002  0.00002  0.00002  0.00002  0.00002
 H2O              0.03205  0.03208  0.03211  0.03214  0.03216  0.03218  0.03219  0.03221
 *NO              0.01743  0.01746  0.01748  0.01750  0.01752  0.01754  0.01755  0.01756
 NO2              0.00013  0.00014  0.00015  0.00015  0.00016  0.00017  0.00017  0.00018
 *N2              0.61177  0.61175  0.61174  0.61173  0.61172  0.61171  0.61170  0.61169
 N2O              0.00001  0.00001  0.00001  0.00001  0.00001  0.00001  0.00001  0.00001
 *O               0.00042  0.00040  0.00038  0.00037  0.00035  0.00034  0.00033  0.00032
 *OH              0.00210  0.00204  0.00200  0.00195  0.00192  0.00188  0.00185  0.00182
 *O2              0.25474  0.25475  0.25477  0.25477  0.25478  0.25479  0.25479  0.25480

  * THERMODYNAMIC PROPERTIES FITTED TO 20000.K

 NOTE. WEIGHT FRACTION OF FUEL IN TOTAL FUELS AND OF OXIDANT IN TOTAL OXIDANTS









         THERMODYNAMIC EQUILIBRIUM COMBUSTION PROPERTIES AT ASSIGNED

                                   PRESSURES

 CASE = Boundless      

             REACTANT                    WT FRACTION      ENERGY      TEMP
                                          (SEE NOTE)     KJ/KG-MOL      K  
 OXIDANT     N2O(L),298.15K               1.0000000     65100.000    298.150
 FUEL        C32H66(a)                    0.9700000   -967800.000    298.150
 FUEL        C                            0.0300000    716680.000    298.150

 O/F=   37.50000  %FUEL=  2.597403  R,EQ.RATIO= 0.250794  PHI,EQ.RATIO= 0.250794

 THERMODYNAMIC PROPERTIES

 P, BAR            40.000   42.500   45.000   47.500   50.000   55.000   60.000   65.000
 T, K             2369.99  2370.31  2370.61  2370.89  2371.14  2371.61  2372.03  2372.40
 RHO, KG/CU M    5.9427 0 6.3134 0 6.6841 0 7.0548 0 7.4255 0 8.1667 0 8.9079 0 9.6490 0
 H, KJ/KG         1433.11  1433.11  1433.11  1433.11  1433.11  1433.11  1433.11  1433.11
 U, KJ/KG          760.02   759.94   759.87   759.81   759.75   759.65   759.55   759.47
 G, KJ/KG        -18365.4 -18327.3 -18291.3 -18257.2 -18224.8 -18164.5 -18109.3 -18058.4
 S, KJ/(KG)(K)     8.3538   8.3366   8.3204   8.3050   8.2905   8.2634   8.2387   8.2160

 M, (1/n)          29.276   29.276   29.277   29.278   29.278   29.280   29.281   29.281
 MW, MOL WT        29.276   29.276   29.277   29.278   29.278   29.280   29.281   29.281
 (dLV/dLP)t      -1.00046 -1.00046 -1.00045 -1.00044 -1.00044 -1.00042 -1.00041 -1.00040
 (dLV/dLT)p        1.0124   1.0121   1.0119   1.0116   1.0114   1.0110   1.0107   1.0104
 Cp, KJ/(KG)(K)    1.5476   1.5455   1.5435   1.5417   1.5401   1.5371   1.5344   1.5321
 GAMMAs            1.2310   1.2312   1.2314   1.2316   1.2318   1.2322   1.2325   1.2327
 SON VEL,M/SEC      910.2    910.4    910.5    910.6    910.7    910.9    911.1    911.3

 MASS FRACTIONS

 *CO              0.00030  0.00029  0.00028  0.00028  0.00027  0.00026  0.00025  0.00024
 *CO2             0.08108  0.08109  0.08111  0.08112  0.08113  0.08115  0.08116  0.08118
 HNO2             0.00000  0.00001  0.00001  0.00001  0.00001  0.00001  0.00001  0.00001
 HO2              0.00002  0.00002  0.00002  0.00002  0.00002  0.00002  0.00003  0.00003
 H2O              0.03223  0.03224  0.03225  0.03227  0.03228  0.03230  0.03232  0.03233
 *NO              0.01758  0.01759  0.01760  0.01761  0.01762  0.01763  0.01765  0.01766
 NO2              0.00019  0.00019  0.00020  0.00020  0.00021  0.00022  0.00023  0.00024
 *N2              0.61168  0.61168  0.61167  0.61166  0.61166  0.61165  0.61164  0.61163
 N2O              0.00001  0.00001  0.00001  0.00001  0.00001  0.00001  0.00001  0.00001
 *O               0.00031  0.00030  0.00029  0.00028  0.00028  0.00026  0.00025  0.00024
 *OH              0.00179  0.00177  0.00175  0.00173  0.00171  0.00167  0.00164  0.00161
 *O2              0.25480  0.25481  0.25481  0.25481  0.25482  0.25482  0.25483  0.25483

  * THERMODYNAMIC PROPERTIES FITTED TO 20000.K

 NOTE. WEIGHT FRACTION OF FUEL IN TOTAL FUELS AND OF OXIDANT IN TOTAL OXIDANTS









         THERMODYNAMIC EQUILIBRIUM COMBUSTION PROPERTIES AT ASSIGNED

                                   PRESSURES

 CASE = Boundless      

             REACTANT                    WT FRACTION      ENERGY      TEMP
                                          (SEE NOTE)     KJ/KG-MOL      K  
 OXIDANT     N2O(L),298.15K               1.0000000     65100.000    298.150
 FUEL        C32H66(a)                    0.9700000   -967800.000    298.150
 FUEL        C                            0.0300000    716680.000    298.150

 O/F=   37.50000  %FUEL=  2.597403  R,EQ.RATIO= 0.250794  PHI,EQ.RATIO= 0.250794

 THERMODYNAMIC PROPERTIES

 P, BAR            70.000
 T, K             2372.73
 RHO, KG/CU M    1.0390 1
 H, KJ/KG         1433.11
 U, KJ/KG          759.39
 G, KJ/KG        -18011.2
 S, KJ/(KG)(K)     8.1949

 M, (1/n)          29.282
 MW, MOL WT        29.282
 (dLV/dLP)t      -1.00040
 (dLV/dLT)p        1.0101
 Cp, KJ/(KG)(K)    1.5299
 GAMMAs            1.2330
 SON VEL,M/SEC      911.4

 MASS FRACTIONS

 *CO              0.00023
 *CO2             0.08119
 HNO2             0.00001
 HO2              0.00003
 H2O              0.03235
 *NO              0.01767
 NO2              0.00025
 *N2              0.61162
 N2O              0.00001
 *O               0.00024
 *OH              0.00158
 *O2              0.25483

  * THERMODYNAMIC PROPERTIES FITTED TO 20000.K

 NOTE. WEIGHT FRACTION OF FUEL IN TOTAL FUELS AND OF OXIDANT IN TOTAL OXIDANTS









         THERMODYNAMIC EQUILIBRIUM COMBUSTION PROPERTIES AT ASSIGNED

                                   PRESSURES

 CASE = Boundless      

             REACTANT                    WT FRACTION      ENERGY      TEMP
                                          (SEE NOTE)     KJ/KG-MOL      K  
 OXIDANT     N2O(L),298.15K               1.0000000     65100.000    298.150
 FUEL        C32H66(a)                    0.9700000   -967800.000    298.150
 FUEL        C                            0.0300000    716680.000    298.150

 O/F=   50.00000  %FUEL=  1.960784  R,EQ.RATIO= 0.188095  PHI,EQ.RATIO= 0.188095

 THERMODYNAMIC PROPERTIES

 P, BAR            1.0000   2.5000   5.0000   7.5000   10.000   12.500   15.000   17.500
 T, K             2185.77  2192.19  2195.89  2197.68  2198.81  2199.61  2200.22  2200.71
 RHO, KG/CU M    1.6104-1 4.0160-1 8.0207-1 1.2023 0 1.6024 0 2.0024 0 2.4023 0 2.8021 0
 H, KJ/KG         1444.39  1444.39  1444.39  1444.39  1444.39  1444.39  1444.39  1444.39
 U, KJ/KG          823.41   821.88   821.00   820.58   820.31   820.12   819.98   819.86
 G, KJ/KG        -18783.6 -18272.5 -17873.6 -17636.5 -17466.7 -17334.3 -17225.7 -17133.6
 S, KJ/(KG)(K)     9.2544   8.9942   8.7974   8.6823   8.6006   8.5373   8.4855   8.4418

 M, (1/n)          29.266   29.280   29.288   29.292   29.295   29.296   29.298   29.299
 MW, MOL WT        29.266   29.280   29.288   29.292   29.295   29.296   29.298   29.299
 (dLV/dLP)t      -1.00068 -1.00049 -1.00038 -1.00033 -1.00030 -1.00028 -1.00027 -1.00025
 (dLV/dLT)p        1.0207   1.0147   1.0114   1.0098   1.0089   1.0082   1.0077   1.0072
 Cp, KJ/(KG)(K)    1.5802   1.5305   1.5028   1.4896   1.4814   1.4756   1.4712   1.4677
 GAMMAs            1.2294   1.2354   1.2390   1.2407   1.2418   1.2426   1.2432   1.2436
 SON VEL,M/SEC      873.8    877.0    878.8    879.7    880.3    880.7    881.0    881.3

 MASS FRACTIONS

 *CO              0.00042  0.00028  0.00020  0.00017  0.00014  0.00013  0.00012  0.00011
 *CO2             0.06091  0.06113  0.06125  0.06130  0.06134  0.06136  0.06138  0.06139
 HO2              0.00000  0.00001  0.00001  0.00001  0.00001  0.00001  0.00001  0.00001
 *H2              0.00001  0.00000  0.00000  0.00000  0.00000  0.00000  0.00000  0.00000
 H2O              0.02395  0.02416  0.02430  0.02437  0.02442  0.02445  0.02448  0.02450
 *NO              0.01256  0.01275  0.01286  0.01291  0.01295  0.01297  0.01299  0.01300
 NO2              0.00003  0.00004  0.00006  0.00008  0.00009  0.00010  0.00011  0.00012
 *N2              0.61813  0.61804  0.61798  0.61795  0.61793  0.61792  0.61790  0.61789
 *O               0.00068  0.00045  0.00033  0.00027  0.00024  0.00021  0.00019  0.00018
 *OH              0.00201  0.00165  0.00141  0.00128  0.00120  0.00114  0.00109  0.00105
 *O2              0.28130  0.28149  0.28160  0.28165  0.28168  0.28170  0.28172  0.28173

  * THERMODYNAMIC PROPERTIES FITTED TO 20000.K

 NOTE. WEIGHT FRACTION OF FUEL IN TOTAL FUELS AND OF OXIDANT IN TOTAL OXIDANTS









         THERMODYNAMIC EQUILIBRIUM COMBUSTION PROPERTIES AT ASSIGNED

                                   PRESSURES

 CASE = Boundless      

             REACTANT                    WT FRACTION      ENERGY      TEMP
                                          (SEE NOTE)     KJ/KG-MOL      K  
 OXIDANT     N2O(L),298.15K               1.0000000     65100.000    298.150
 FUEL        C32H66(a)                    0.9700000   -967800.000    298.150
 FUEL        C                            0.0300000    716680.000    298.150

 O/F=   50.00000  %FUEL=  1.960784  R,EQ.RATIO= 0.188095  PHI,EQ.RATIO= 0.188095

 THERMODYNAMIC PROPERTIES

 P, BAR            20.000   22.500   25.000   27.500   30.000   32.500   35.000   37.500
 T, K             2201.11  2201.45  2201.74  2202.00  2202.22  2202.42  2202.61  2202.77
 RHO, KG/CU M    3.2020 0 3.6018 0 4.0015 0 4.4012 0 4.8010 0 5.2006 0 5.6003 0 6.0000 0
 H, KJ/KG         1444.39  1444.39  1444.39  1444.39  1444.39  1444.39  1444.39  1444.39
 U, KJ/KG          819.77   819.69   819.62   819.56   819.51   819.46   819.42   819.38
 G, KJ/KG        -17053.5 -16982.8 -16919.4 -16862.0 -16809.5 -16761.2 -16716.3 -16674.6
 S, KJ/(KG)(K)     8.4039   8.3705   8.3406   8.3135   8.2888   8.2661   8.2451   8.2255

 M, (1/n)          29.300   29.301   29.301   29.302   29.302   29.303   29.303   29.304
 MW, MOL WT        29.300   29.301   29.301   29.302   29.302   29.303   29.303   29.304
 (dLV/dLP)t      -1.00024 -1.00024 -1.00023 -1.00022 -1.00022 -1.00021 -1.00021 -1.00021
 (dLV/dLT)p        1.0069   1.0066   1.0064   1.0061   1.0060   1.0058   1.0056   1.0055
 Cp, KJ/(KG)(K)    1.4649   1.4625   1.4604   1.4586   1.4571   1.4556   1.4544   1.4532
 GAMMAs            1.2440   1.2443   1.2446   1.2449   1.2451   1.2453   1.2455   1.2456
 SON VEL,M/SEC      881.5    881.7    881.8    881.9    882.1    882.2    882.3    882.3

 MASS FRACTIONS

 *CO              0.00010  0.00010  0.00009  0.00009  0.00009  0.00008  0.00008  0.00008
 *CO2             0.06140  0.06141  0.06142  0.06142  0.06143  0.06143  0.06144  0.06144
 HO2              0.00001  0.00001  0.00001  0.00001  0.00001  0.00001  0.00001  0.00001
 H2O              0.02452  0.02454  0.02455  0.02456  0.02457  0.02458  0.02459  0.02460
 *NO              0.01301  0.01302  0.01303  0.01304  0.01305  0.01305  0.01306  0.01306
 NO2              0.00013  0.00013  0.00014  0.00015  0.00016  0.00016  0.00017  0.00017
 *N2              0.61789  0.61788  0.61787  0.61787  0.61786  0.61786  0.61785  0.61785
 N2O              0.00000  0.00000  0.00000  0.00001  0.00001  0.00001  0.00001  0.00001
 *O               0.00017  0.00016  0.00015  0.00014  0.00014  0.00013  0.00013  0.00012
 *OH              0.00102  0.00099  0.00097  0.00095  0.00093  0.00091  0.00089  0.00088
 *O2              0.28174  0.28175  0.28175  0.28176  0.28176  0.28176  0.28177  0.28177

  * THERMODYNAMIC PROPERTIES FITTED TO 20000.K

 NOTE. WEIGHT FRACTION OF FUEL IN TOTAL FUELS AND OF OXIDANT IN TOTAL OXIDANTS









         THERMODYNAMIC EQUILIBRIUM COMBUSTION PROPERTIES AT ASSIGNED

                                   PRESSURES

 CASE = Boundless      

             REACTANT                    WT FRACTION      ENERGY      TEMP
                                          (SEE NOTE)     KJ/KG-MOL      K  
 OXIDANT     N2O(L),298.15K               1.0000000     65100.000    298.150
 FUEL        C32H66(a)                    0.9700000   -967800.000    298.150
 FUEL        C                            0.0300000    716680.000    298.150

 O/F=   50.00000  %FUEL=  1.960784  R,EQ.RATIO= 0.188095  PHI,EQ.RATIO= 0.188095

 THERMODYNAMIC PROPERTIES

 P, BAR            40.000   42.500   45.000   47.500   50.000   55.000   60.000   65.000
 T, K             2202.92  2203.06  2203.19  2203.31  2203.42  2203.62  2203.79  2203.95
 RHO, KG/CU M    6.3996 0 6.7993 0 7.1989 0 7.5985 0 7.9981 0 8.7972 0 9.5964 0 1.0395 1
 H, KJ/KG         1444.39  1444.39  1444.39  1444.39  1444.39  1444.39  1444.39  1444.39
 U, KJ/KG          819.35   819.32   819.29   819.26   819.24   819.19   819.15   819.12
 G, KJ/KG        -16635.5 -16598.7 -16564.0 -16531.2 -16500.1 -16442.1 -16389.1 -16340.4
 S, KJ/(KG)(K)     8.2072   8.1900   8.1738   8.1585   8.1439   8.1169   8.0922   8.0695

 M, (1/n)          29.304   29.305   29.305   29.305   29.305   29.306   29.306   29.307
 MW, MOL WT        29.304   29.305   29.305   29.305   29.305   29.306   29.306   29.307
 (dLV/dLP)t      -1.00020 -1.00020 -1.00020 -1.00020 -1.00020 -1.00019 -1.00019 -1.00019
 (dLV/dLT)p        1.0054   1.0052   1.0051   1.0050   1.0049   1.0048   1.0046   1.0045
 Cp, KJ/(KG)(K)    1.4522   1.4512   1.4503   1.4495   1.4487   1.4473   1.4461   1.4450
 GAMMAs            1.2458   1.2459   1.2460   1.2461   1.2462   1.2464   1.2466   1.2467
 SON VEL,M/SEC      882.4    882.5    882.5    882.6    882.7    882.8    882.8    882.9

 MASS FRACTIONS

 *CO              0.00007  0.00007  0.00007  0.00007  0.00007  0.00006  0.00006  0.00006
 *CO2             0.06145  0.06145  0.06145  0.06146  0.06146  0.06146  0.06147  0.06147
 HNO2             0.00000  0.00000  0.00000  0.00000  0.00000  0.00000  0.00001  0.00001
 HO2              0.00001  0.00001  0.00001  0.00001  0.00001  0.00001  0.00001  0.00001
 H2O              0.02461  0.02461  0.02462  0.02462  0.02463  0.02464  0.02465  0.02466
 *NO              0.01307  0.01307  0.01308  0.01308  0.01308  0.01309  0.01309  0.01310
 NO2              0.00018  0.00019  0.00019  0.00020  0.00020  0.00021  0.00022  0.00023
 *N2              0.61784  0.61784  0.61784  0.61783  0.61783  0.61782  0.61782  0.61781
 N2O              0.00001  0.00001  0.00001  0.00001  0.00001  0.00001  0.00001  0.00001
 *O               0.00012  0.00012  0.00011  0.00011  0.00011  0.00010  0.00010  0.00010
 *OH              0.00087  0.00085  0.00084  0.00083  0.00082  0.00080  0.00079  0.00077
 *O2              0.28177  0.28177  0.28177  0.28177  0.28177  0.28178  0.28178  0.28178

  * THERMODYNAMIC PROPERTIES FITTED TO 20000.K

 NOTE. WEIGHT FRACTION OF FUEL IN TOTAL FUELS AND OF OXIDANT IN TOTAL OXIDANTS









         THERMODYNAMIC EQUILIBRIUM COMBUSTION PROPERTIES AT ASSIGNED

                                   PRESSURES

 CASE = Boundless      

             REACTANT                    WT FRACTION      ENERGY      TEMP
                                          (SEE NOTE)     KJ/KG-MOL      K  
 OXIDANT     N2O(L),298.15K               1.0000000     65100.000    298.150
 FUEL        C32H66(a)                    0.9700000   -967800.000    298.150
 FUEL        C                            0.0300000    716680.000    298.150

 O/F=   50.00000  %FUEL=  1.960784  R,EQ.RATIO= 0.188095  PHI,EQ.RATIO= 0.188095

 THERMODYNAMIC PROPERTIES

 P, BAR            70.000
 T, K             2204.09
 RHO, KG/CU M    1.1195 1
 H, KJ/KG         1444.39
 U, KJ/KG          819.08
 G, KJ/KG        -16295.2
 S, KJ/(KG)(K)     8.0485

 M, (1/n)          29.307
 MW, MOL WT        29.307
 (dLV/dLP)t      -1.00018
 (dLV/dLT)p        1.0044
 Cp, KJ/(KG)(K)    1.4440
 GAMMAs            1.2469
 SON VEL,M/SEC      883.0

 MASS FRACTIONS

 *CO              0.00006
 *CO2             0.06147
 HNO2             0.00001
 HO2              0.00001
 H2O              0.02466
 *NO              0.01310
 NO2              0.00024
 *N2              0.61781
 N2O              0.00001
 *O               0.00009
 *OH              0.00076
 *O2              0.28178

  * THERMODYNAMIC PROPERTIES FITTED TO 20000.K

 NOTE. WEIGHT FRACTION OF FUEL IN TOTAL FUELS AND OF OXIDANT IN TOTAL OXIDANTS



