
 *******************************************************************************

         NASA-GLENN CHEMICAL EQUILIBRIUM PROGRAM CEA2, MAY 21, 2004
                   BY  BONNIE MCBRIDE AND SANFORD GORDON
      REFS: NASA RP-1311, PART I, 1994 AND NASA RP-1311, PART II, 1996

 *******************************************************************************



  
 !     USER MANUAL FOR CEA CAN BE FOUND HERE:
 !          https://www.grc.nasa.gov/www/CEAWeb/RP-1311-P2.pdf
 !
 !  MULESIM DATA:
 !     (a)  Combustion or assigned-enthalpy-and-pressure problem (hp).
 !     (b)  Fuels are 'C3H6(L),propyle' as an approximation for polypropylene at
 !	   298.15 K. The oxidant is 'N2O(L),298.15K' at 298.15 K.
 !     (c)  Oxidant-to-fuel weight ratios from 0.5 to 50 are defined.  Weight
 !          fractions are fractions of fuel relative to total fuel and fractions
 !          of oxidant relative to total oxidant. Make sure to update the wtfrac
 !          value if you add more fuels.
 !     (d)  Assigned pressures range from 1-70 bar in steps of 5 (p(bar)=1,...).
 !     (e)  Mixture properties are to be printed in SI units (siunits).
 !     (f)  Reactant fractions are to be expressed in terms of mass (massf)
 !     (g)  The short output file format is used (short)
 !     (h)  I don't know why but this program is unbelievably finicky, be warned
  
 reac
        oxid N2O   wtfrac=1   t(k)=298.15
        fuel C3H6(L),propyle   wtfrac=1   t(k)=225.46
 prob   case=RATTWORKS   hp   p(bar)=1,2.5,5,7.5,10,12.5,15,17.5,20,22.5,25,27.5,
 30,32.5,35,37.5,40,42.5,45,47.5,50,55,60,65,70
        o/f=0.5,0.75,1,1.25,1.5,2,2.25,2.5,2.75,3,3.5,4,4.5,5,5.5,6,6.5,7,7.5,8,8
 .5,9,9.5,10,10.5,11,12,13,14,15,17.5,20,25,37.5,50
 output siunits   massf   short
  
 end




         THERMODYNAMIC EQUILIBRIUM COMBUSTION PROPERTIES AT ASSIGNED

                                   PRESSURES

 CASE = RATTWORKS      

             REACTANT                    WT FRACTION      ENERGY      TEMP
                                          (SEE NOTE)     KJ/KG-MOL      K  
 OXIDANT     N2O                          1.0000000     81600.000    298.150
 FUEL        C3H6(L),propyle              1.0000000     -2704.000    225.460

 O/F=    0.50000  %FUEL= 66.666667  R,EQ.RATIO=18.826884  PHI,EQ.RATIO=18.826884

 THERMODYNAMIC PROPERTIES

 P, BAR            1.0000   2.5000   5.0000   7.5000   10.000   12.500   15.000   17.500
 T, K             1017.50  1062.41  1100.58  1124.57  1142.30  1156.47  1168.30  1178.47
 RHO, KG/CU M    2.0085-1 4.9170-1 9.6826-1 1.4397 0 1.9082 0 2.3744 0 2.8392 0 3.3026 0
 H, KJ/KG          575.16   575.16   575.16   575.16   575.16   575.16   575.16   575.16
 U, KJ/KG          77.277   66.727   58.773   54.232   51.095   48.725   46.836   45.277
 G, KJ/KG        -12073.5 -12160.5 -12256.5 -12323.6 -12375.5 -12418.2 -12454.4 -12486.0
 S, KJ/(KG)(K)    12.4311  11.9875  11.6590  11.4700  11.3373  11.2354  11.1526  11.0831

 M, (1/n)          16.992   17.374   17.721   17.949   18.123   18.265   18.386   18.492
 MW, MOL WT        10.211   10.439   10.656   10.802   10.915   11.008   11.087   11.156
 (dLV/dLP)t      -1.05076 -1.06449 -1.07479 -1.08052 -1.08435 -1.08717 -1.08934 -1.09108
 (dLV/dLT)p        1.6441   1.7662   1.8467   1.8866   1.9110   1.9275   1.9392   1.9479
 Cp, KJ/(KG)(K)    7.0381   7.4246   7.5828   7.6174   7.6156   7.5995   7.5768   7.5512
 GAMMAs            1.1590   1.1582   1.1577   1.1573   1.1569   1.1566   1.1562   1.1559
 SON VEL,M/SEC      759.6    767.4    773.2    776.5    778.7    780.3    781.6    782.6

 MASS FRACTIONS

 CH4              0.03763  0.05476  0.07035  0.08049  0.08812  0.09426  0.09943  0.10390
 *CO              0.16437  0.15812  0.15400  0.15177  0.15025  0.14908  0.14813  0.14733
 *CO2             0.01027  0.01037  0.01031  0.01024  0.01020  0.01018  0.01016  0.01015
 C2H4             0.00000  0.00000  0.00000  0.00000  0.00001  0.00001  0.00001  0.00001
 C2H6             0.00000  0.00000  0.00001  0.00001  0.00001  0.00002  0.00002  0.00003
 HCN              0.00000  0.00001  0.00001  0.00002  0.00002  0.00002  0.00003  0.00003
 *H2              0.08384  0.07908  0.07484  0.07211  0.07006  0.06842  0.06704  0.06585
 H2O              0.02232  0.02625  0.02895  0.03043  0.03145  0.03223  0.03285  0.03337
 NH3              0.00011  0.00020  0.00030  0.00038  0.00044  0.00050  0.00055  0.00060
 *N2              0.21207  0.21199  0.21191  0.21184  0.21179  0.21174  0.21169  0.21165
 C(gr)            0.46939  0.45922  0.44932  0.44269  0.43765  0.43355  0.43008  0.42708

  * THERMODYNAMIC PROPERTIES FITTED TO 20000.K

 NOTE. WEIGHT FRACTION OF FUEL IN TOTAL FUELS AND OF OXIDANT IN TOTAL OXIDANTS









         THERMODYNAMIC EQUILIBRIUM COMBUSTION PROPERTIES AT ASSIGNED

                                   PRESSURES

 CASE = RATTWORKS      

             REACTANT                    WT FRACTION      ENERGY      TEMP
                                          (SEE NOTE)     KJ/KG-MOL      K  
 OXIDANT     N2O                          1.0000000     81600.000    298.150
 FUEL        C3H6(L),propyle              1.0000000     -2704.000    225.460

 O/F=    0.50000  %FUEL= 66.666667  R,EQ.RATIO=18.826884  PHI,EQ.RATIO=18.826884

 THERMODYNAMIC PROPERTIES

 P, BAR            20.000   22.500   25.000   27.500   30.000   32.500   35.000   37.500
 T, K             1187.41  1195.39  1202.61  1209.19  1215.25  1220.86  1226.09  1230.99
 RHO, KG/CU M    3.7650 0 4.2266 0 4.6874 0 5.1476 0 5.6073 0 6.0665 0 6.5252 0 6.9836 0
 H, KJ/KG          575.16   575.16   575.16   575.16   575.16   575.16   575.16   575.16
 U, KJ/KG          43.957   42.818   41.820   40.936   40.144   39.430   38.781   38.188
 G, KJ/KG        -12513.9 -12539.1 -12561.9 -12582.8 -12602.1 -12620.0 -12636.7 -12652.4
 S, KJ/(KG)(K)    11.0232  10.9707  10.9238  10.8816  10.8433  10.8081  10.7756  10.7455

 M, (1/n)          18.586   18.670   18.748   18.819   18.886   18.948   19.006   19.061
 MW, MOL WT        11.218   11.274   11.325   11.373   11.416   11.457   11.496   11.532
 (dLV/dLP)t      -1.09252 -1.09372 -1.09474 -1.09563 -1.09639 -1.09707 -1.09766 -1.09819
 (dLV/dLT)p        1.9545   1.9596   1.9635   1.9665   1.9689   1.9707   1.9721   1.9731
 Cp, KJ/(KG)(K)    7.5244   7.4972   7.4701   7.4435   7.4175   7.3921   7.3675   7.3435
 GAMMAs            1.1555   1.1552   1.1549   1.1546   1.1543   1.1540   1.1538   1.1535
 SON VEL,M/SEC      783.5    784.2    784.8    785.4    785.9    786.3    786.7    787.0

 MASS FRACTIONS

 CH4              0.10784  0.11136  0.11456  0.11747  0.12016  0.12266  0.12498  0.12716
 *CO              0.14663  0.14602  0.14546  0.14495  0.14449  0.14405  0.14365  0.14327
 *CO2             0.01014  0.01014  0.01014  0.01014  0.01015  0.01016  0.01017  0.01018
 C2H4             0.00001  0.00001  0.00002  0.00002  0.00002  0.00002  0.00002  0.00002
 C2H6             0.00003  0.00003  0.00004  0.00004  0.00005  0.00005  0.00006  0.00006
 HCN              0.00003  0.00004  0.00004  0.00004  0.00004  0.00005  0.00005  0.00005
 *H2              0.06480  0.06386  0.06301  0.06223  0.06152  0.06085  0.06023  0.05965
 H2O              0.03383  0.03422  0.03458  0.03490  0.03520  0.03547  0.03572  0.03596
 NH3              0.00065  0.00069  0.00073  0.00076  0.00080  0.00083  0.00087  0.00090
 *N2              0.21161  0.21158  0.21154  0.21151  0.21148  0.21145  0.21142  0.21139
 C(gr)            0.42442  0.42204  0.41988  0.41791  0.41609  0.41440  0.41282  0.41134

  * THERMODYNAMIC PROPERTIES FITTED TO 20000.K

 NOTE. WEIGHT FRACTION OF FUEL IN TOTAL FUELS AND OF OXIDANT IN TOTAL OXIDANTS









         THERMODYNAMIC EQUILIBRIUM COMBUSTION PROPERTIES AT ASSIGNED

                                   PRESSURES

 CASE = RATTWORKS      

             REACTANT                    WT FRACTION      ENERGY      TEMP
                                          (SEE NOTE)     KJ/KG-MOL      K  
 OXIDANT     N2O                          1.0000000     81600.000    298.150
 FUEL        C3H6(L),propyle              1.0000000     -2704.000    225.460

 O/F=    0.50000  %FUEL= 66.666667  R,EQ.RATIO=18.826884  PHI,EQ.RATIO=18.826884

 THERMODYNAMIC PROPERTIES

 P, BAR            40.000   42.500   45.000   47.500   50.000   55.000   60.000   65.000
 T, K             1235.59  1239.94  1244.05  1247.96  1251.68  1258.63  1265.01  1270.91
 RHO, KG/CU M    7.4416 0 7.8993 0 8.3567 0 8.8139 0 9.2708 0 1.0184 1 1.1096 1 1.2008 1
 H, KJ/KG          575.16   575.16   575.16   575.16   575.16   575.16   575.16   575.16
 U, KJ/KG          37.642   37.139   36.673   36.239   35.833   35.098   34.448   33.867
 G, KJ/KG        -12667.1 -12681.0 -12694.2 -12706.7 -12718.6 -12740.8 -12761.2 -12780.0
 S, KJ/(KG)(K)    10.7174  10.6910  10.6663  10.6429  10.6208  10.5798  10.5425  10.5084

 M, (1/n)          19.112   19.162   19.209   19.253   19.296   19.377   19.452   19.522
 MW, MOL WT        11.567   11.599   11.631   11.660   11.689   11.743   11.792   11.839
 (dLV/dLP)t      -1.09866 -1.09908 -1.09946 -1.09980 -1.10011 -1.10065 -1.10110 -1.10147
 (dLV/dLT)p        1.9739   1.9743   1.9746   1.9747   1.9746   1.9741   1.9732   1.9721
 Cp, KJ/(KG)(K)    7.3202   7.2976   7.2756   7.2543   7.2335   7.1938   7.1562   7.1205
 GAMMAs            1.1532   1.1530   1.1527   1.1525   1.1523   1.1518   1.1514   1.1510
 SON VEL,M/SEC      787.3    787.6    787.9    788.1    788.3    788.7    789.0    789.3

 MASS FRACTIONS

 CH4              0.12921  0.13115  0.13298  0.13472  0.13638  0.13947  0.14232  0.14494
 *CO              0.14291  0.14257  0.14225  0.14194  0.14165  0.14109  0.14058  0.14010
 *CO2             0.01019  0.01020  0.01021  0.01022  0.01023  0.01026  0.01029  0.01031
 CH3CN            0.00000  0.00000  0.00000  0.00000  0.00001  0.00001  0.00001  0.00001
 C2H4             0.00003  0.00003  0.00003  0.00003  0.00003  0.00004  0.00004  0.00004
 C2H6             0.00006  0.00007  0.00007  0.00008  0.00008  0.00009  0.00010  0.00010
 HCN              0.00005  0.00006  0.00006  0.00006  0.00006  0.00007  0.00007  0.00007
 *H2              0.05911  0.05859  0.05810  0.05764  0.05719  0.05637  0.05561  0.05491
 H2O              0.03618  0.03639  0.03659  0.03678  0.03696  0.03729  0.03760  0.03789
 NH3              0.00093  0.00096  0.00098  0.00101  0.00104  0.00109  0.00114  0.00118
 *N2              0.21137  0.21134  0.21132  0.21130  0.21127  0.21123  0.21119  0.21115
 C(gr)            0.40996  0.40864  0.40740  0.40622  0.40510  0.40300  0.40107  0.39929

  * THERMODYNAMIC PROPERTIES FITTED TO 20000.K

 NOTE. WEIGHT FRACTION OF FUEL IN TOTAL FUELS AND OF OXIDANT IN TOTAL OXIDANTS









         THERMODYNAMIC EQUILIBRIUM COMBUSTION PROPERTIES AT ASSIGNED

                                   PRESSURES

 CASE = RATTWORKS      

             REACTANT                    WT FRACTION      ENERGY      TEMP
                                          (SEE NOTE)     KJ/KG-MOL      K  
 OXIDANT     N2O                          1.0000000     81600.000    298.150
 FUEL        C3H6(L),propyle              1.0000000     -2704.000    225.460

 O/F=    0.50000  %FUEL= 66.666667  R,EQ.RATIO=18.826884  PHI,EQ.RATIO=18.826884

 THERMODYNAMIC PROPERTIES

 P, BAR            70.000
 T, K             1276.40
 RHO, KG/CU M    1.2919 1
 H, KJ/KG          575.16
 U, KJ/KG          33.346
 G, KJ/KG        -12797.4
 S, KJ/(KG)(K)    10.4768

 M, (1/n)          19.587
 MW, MOL WT        11.882
 (dLV/dLP)t      -1.10178
 (dLV/dLT)p        1.9707
 Cp, KJ/(KG)(K)    7.0866
 GAMMAs            1.1506
 SON VEL,M/SEC      789.6

 MASS FRACTIONS

 CH4              0.14739
 *CO              0.13964
 *CO2             0.01034
 CH3CN            0.00001
 C2H4             0.00004
 C2H6             0.00011
 HCN              0.00008
 *H2              0.05425
 H2O              0.03816
 NH3              0.00123
 *N2              0.21111
 C(gr)            0.39764

  * THERMODYNAMIC PROPERTIES FITTED TO 20000.K

 NOTE. WEIGHT FRACTION OF FUEL IN TOTAL FUELS AND OF OXIDANT IN TOTAL OXIDANTS









         THERMODYNAMIC EQUILIBRIUM COMBUSTION PROPERTIES AT ASSIGNED

                                   PRESSURES

 CASE = RATTWORKS      

             REACTANT                    WT FRACTION      ENERGY      TEMP
                                          (SEE NOTE)     KJ/KG-MOL      K  
 OXIDANT     N2O                          1.0000000     81600.000    298.150
 FUEL        C3H6(L),propyle              1.0000000     -2704.000    225.460

 O/F=    0.75000  %FUEL= 57.142857  R,EQ.RATIO=12.551256  PHI,EQ.RATIO=12.551256

 THERMODYNAMIC PROPERTIES

 P, BAR            1.0000   2.5000   5.0000   7.5000   10.000   12.500   15.000   17.500
 T, K             1129.73  1162.74  1194.45  1215.58  1231.70  1244.81  1255.92  1265.58
 RHO, KG/CU M    1.8029-1 4.4411-1 8.7685-1 1.3049 0 1.7301 0 2.1532 0 2.5746 0 2.9948 0
 H, KJ/KG          757.85   757.85   757.85   757.85   757.85   757.85   757.85   757.85
 U, KJ/KG          203.20   194.93   187.63   183.12   179.86   177.32   175.24   173.50
 G, KJ/KG        -13559.3 -13458.1 -13447.6 -13464.8 -13486.4 -13508.1 -13528.9 -13548.6
 S, KJ/(KG)(K)    12.6732  12.2262  11.8929  11.7003  11.5648  11.4604  11.3756  11.3042

 M, (1/n)          16.935   17.174   17.416   17.585   17.718   17.828   17.923   18.007
 MW, MOL WT        11.138   11.283   11.439   11.552   11.643   11.719   11.786   11.845
 (dLV/dLP)t      -1.01831 -1.03000 -1.04059 -1.04722 -1.05202 -1.05575 -1.05878 -1.06132
 (dLV/dLT)p        1.2134   1.3340   1.4344   1.4931   1.5337   1.5642   1.5881   1.6076
 Cp, KJ/(KG)(K)    3.8925   4.5177   4.9721   5.2086   5.3578   5.4613   5.5373   5.5953
 GAMMAs            1.2010   1.1915   1.1862   1.1837   1.1821   1.1809   1.1800   1.1792
 SON VEL,M/SEC      816.2    819.0    822.4    824.8    826.6    828.0    829.1    830.1

 MASS FRACTIONS

 CH4              0.01148  0.02065  0.03033  0.03715  0.04253  0.04700  0.05084  0.05423
 *CO              0.25807  0.25028  0.24391  0.24013  0.23746  0.23540  0.23371  0.23230
 *CO2             0.00343  0.00491  0.00594  0.00650  0.00686  0.00714  0.00735  0.00753
 C2H4             0.00000  0.00000  0.00000  0.00001  0.00001  0.00001  0.00001  0.00001
 C2H6             0.00000  0.00000  0.00000  0.00000  0.00001  0.00001  0.00001  0.00001
 HCN              0.00002  0.00003  0.00004  0.00005  0.00006  0.00007  0.00008  0.00009
 *H2              0.07849  0.07574  0.07293  0.07099  0.06947  0.06821  0.06713  0.06619
 H2O              0.00663  0.01044  0.01368  0.01566  0.01707  0.01818  0.01908  0.01985
 NH3              0.00006  0.00012  0.00020  0.00026  0.00032  0.00037  0.00041  0.00045
 *N2              0.27272  0.27266  0.27259  0.27253  0.27248  0.27244  0.27240  0.27236
 C(gr)            0.36910  0.36517  0.36036  0.35671  0.35373  0.35118  0.34896  0.34698

  * THERMODYNAMIC PROPERTIES FITTED TO 20000.K

 NOTE. WEIGHT FRACTION OF FUEL IN TOTAL FUELS AND OF OXIDANT IN TOTAL OXIDANTS









         THERMODYNAMIC EQUILIBRIUM COMBUSTION PROPERTIES AT ASSIGNED

                                   PRESSURES

 CASE = RATTWORKS      

             REACTANT                    WT FRACTION      ENERGY      TEMP
                                          (SEE NOTE)     KJ/KG-MOL      K  
 OXIDANT     N2O                          1.0000000     81600.000    298.150
 FUEL        C3H6(L),propyle              1.0000000     -2704.000    225.460

 O/F=    0.75000  %FUEL= 57.142857  R,EQ.RATIO=12.551256  PHI,EQ.RATIO=12.551256

 THERMODYNAMIC PROPERTIES

 P, BAR            20.000   22.500   25.000   27.500   30.000   32.500   35.000   37.500
 T, K             1274.15  1281.85  1288.85  1295.28  1301.22  1306.75  1311.93  1316.79
 RHO, KG/CU M    3.4138 0 3.8320 0 4.2493 0 4.6660 0 5.0820 0 5.4975 0 5.9125 0 6.3271 0
 H, KJ/KG          757.85   757.85   757.85   757.85   757.85   757.85   757.85   757.85
 U, KJ/KG          172.00   170.69   169.52   168.48   167.54   166.68   165.89   165.16
 G, KJ/KG        -13567.0 -13584.3 -13600.5 -13615.9 -13630.4 -13644.2 -13657.3 -13669.7
 S, KJ/(KG)(K)    11.2427  11.1886  11.1405  11.0970  11.0575  11.0212  10.9877  10.9567

 M, (1/n)          18.083   18.151   18.215   18.273   18.327   18.379   18.427   18.472
 MW, MOL WT        11.899   11.948   11.993   12.035   12.075   12.112   12.147   12.180
 (dLV/dLP)t      -1.06350 -1.06539 -1.06706 -1.06854 -1.06988 -1.07109 -1.07219 -1.07320
 (dLV/dLT)p        1.6239   1.6378   1.6498   1.6602   1.6694   1.6776   1.6849   1.6915
 Cp, KJ/(KG)(K)    5.6407   5.6769   5.7063   5.7304   5.7504   5.7670   5.7808   5.7924
 GAMMAs            1.1785   1.1779   1.1774   1.1769   1.1765   1.1760   1.1757   1.1753
 SON VEL,M/SEC      830.9    831.6    832.3    832.9    833.4    833.8    834.2    834.6

 MASS FRACTIONS

 CH4              0.05725  0.06000  0.06251  0.06483  0.06699  0.06900  0.07089  0.07267
 *CO              0.23107  0.22999  0.22902  0.22814  0.22734  0.22661  0.22593  0.22529
 *CO2             0.00768  0.00781  0.00793  0.00804  0.00813  0.00822  0.00830  0.00838
 CH3CN            0.00000  0.00000  0.00000  0.00000  0.00000  0.00001  0.00001  0.00001
 C2H4             0.00002  0.00002  0.00002  0.00002  0.00003  0.00003  0.00003  0.00003
 C2H6             0.00001  0.00002  0.00002  0.00002  0.00002  0.00003  0.00003  0.00003
 HCN              0.00009  0.00010  0.00011  0.00011  0.00012  0.00012  0.00013  0.00013
 *H2              0.06534  0.06458  0.06388  0.06324  0.06264  0.06209  0.06156  0.06107
 H2O              0.02052  0.02110  0.02163  0.02211  0.02254  0.02294  0.02331  0.02366
 NH3              0.00049  0.00053  0.00056  0.00060  0.00063  0.00066  0.00069  0.00071
 *N2              0.27232  0.27229  0.27226  0.27223  0.27220  0.27217  0.27214  0.27212
 C(gr)            0.34519  0.34356  0.34205  0.34065  0.33935  0.33813  0.33698  0.33589

  * THERMODYNAMIC PROPERTIES FITTED TO 20000.K

 NOTE. WEIGHT FRACTION OF FUEL IN TOTAL FUELS AND OF OXIDANT IN TOTAL OXIDANTS









         THERMODYNAMIC EQUILIBRIUM COMBUSTION PROPERTIES AT ASSIGNED

                                   PRESSURES

 CASE = RATTWORKS      

             REACTANT                    WT FRACTION      ENERGY      TEMP
                                          (SEE NOTE)     KJ/KG-MOL      K  
 OXIDANT     N2O                          1.0000000     81600.000    298.150
 FUEL        C3H6(L),propyle              1.0000000     -2704.000    225.460

 O/F=    0.75000  %FUEL= 57.142857  R,EQ.RATIO=12.551256  PHI,EQ.RATIO=12.551256

 THERMODYNAMIC PROPERTIES

 P, BAR            40.000   42.500   45.000   47.500   50.000   55.000   60.000   65.000
 T, K             1321.37  1325.71  1329.83  1333.76  1337.51  1344.52  1351.00  1357.00
 RHO, KG/CU M    6.7412 0 7.1550 0 7.5684 0 7.9815 0 8.3943 0 9.2191 0 1.0043 1 1.0866 1
 H, KJ/KG          757.85   757.85   757.85   757.85   757.85   757.85   757.85   757.85
 U, KJ/KG          164.49   163.86   163.28   162.73   162.21   161.27   160.42   159.66
 G, KJ/KG        -13681.6 -13693.0 -13703.9 -13714.4 -13724.4 -13743.5 -13761.2 -13777.8
 S, KJ/(KG)(K)    10.9276  10.9004  10.8749  10.8507  10.8278  10.7855  10.7469  10.7116

 M, (1/n)          18.516   18.557   18.596   18.634   18.670   18.738   18.802   18.861
 MW, MOL WT        12.212   12.242   12.271   12.298   12.325   12.375   12.422   12.466
 (dLV/dLP)t      -1.07413 -1.07499 -1.07579 -1.07653 -1.07722 -1.07848 -1.07959 -1.08059
 (dLV/dLT)p        1.6975   1.7029   1.7079   1.7124   1.7166   1.7240   1.7304   1.7359
 Cp, KJ/(KG)(K)    5.8022   5.8103   5.8171   5.8228   5.8275   5.8344   5.8388   5.8411
 GAMMAs            1.1749   1.1746   1.1743   1.1740   1.1737   1.1731   1.1726   1.1721
 SON VEL,M/SEC      835.0    835.3    835.6    835.9    836.1    836.6    837.0    837.3

 MASS FRACTIONS

 CH4              0.07435  0.07595  0.07747  0.07892  0.08031  0.08292  0.08533  0.08757
 *CO              0.22469  0.22413  0.22360  0.22310  0.22262  0.22173  0.22091  0.22015
 *CO2             0.00845  0.00852  0.00858  0.00865  0.00870  0.00881  0.00892  0.00901
 CH3CN            0.00001  0.00001  0.00001  0.00001  0.00001  0.00001  0.00001  0.00001
 C2H4             0.00003  0.00004  0.00004  0.00004  0.00004  0.00005  0.00005  0.00005
 C2H6             0.00003  0.00004  0.00004  0.00004  0.00004  0.00005  0.00005  0.00006
 HCN              0.00014  0.00014  0.00015  0.00015  0.00016  0.00017  0.00018  0.00018
 *H2              0.06061  0.06016  0.05974  0.05934  0.05896  0.05824  0.05757  0.05696
 H2O              0.02398  0.02429  0.02458  0.02485  0.02511  0.02559  0.02604  0.02645
 NH3              0.00074  0.00077  0.00079  0.00082  0.00084  0.00089  0.00094  0.00098
 *N2              0.27209  0.27207  0.27204  0.27202  0.27200  0.27195  0.27191  0.27187
 C(gr)            0.33486  0.33388  0.33294  0.33205  0.33119  0.32958  0.32808  0.32669

  * THERMODYNAMIC PROPERTIES FITTED TO 20000.K

 NOTE. WEIGHT FRACTION OF FUEL IN TOTAL FUELS AND OF OXIDANT IN TOTAL OXIDANTS









         THERMODYNAMIC EQUILIBRIUM COMBUSTION PROPERTIES AT ASSIGNED

                                   PRESSURES

 CASE = RATTWORKS      

             REACTANT                    WT FRACTION      ENERGY      TEMP
                                          (SEE NOTE)     KJ/KG-MOL      K  
 OXIDANT     N2O                          1.0000000     81600.000    298.150
 FUEL        C3H6(L),propyle              1.0000000     -2704.000    225.460

 O/F=    0.75000  %FUEL= 57.142857  R,EQ.RATIO=12.551256  PHI,EQ.RATIO=12.551256

 THERMODYNAMIC PROPERTIES

 P, BAR            70.000
 T, K             1362.61
 RHO, KG/CU M    1.1688 1
 H, KJ/KG          757.85
 U, KJ/KG          158.96
 G, KJ/KG        -13793.4
 S, KJ/(KG)(K)    10.6790

 M, (1/n)          18.917
 MW, MOL WT        12.507
 (dLV/dLP)t      -1.08148
 (dLV/dLT)p        1.7407
 Cp, KJ/(KG)(K)    5.8419
 GAMMAs            1.1716
 SON VEL,M/SEC      837.7

 MASS FRACTIONS

 CH4              0.08967
 *CO              0.21945
 *CO2             0.00910
 CH3CN            0.00001
 C2H4             0.00006
 C2H6             0.00006
 HCN              0.00019
 *H2              0.05638
 H2O              0.02683
 NH3              0.00102
 *N2              0.27183
 C(gr)            0.32539

  * THERMODYNAMIC PROPERTIES FITTED TO 20000.K

 NOTE. WEIGHT FRACTION OF FUEL IN TOTAL FUELS AND OF OXIDANT IN TOTAL OXIDANTS









         THERMODYNAMIC EQUILIBRIUM COMBUSTION PROPERTIES AT ASSIGNED

                                   PRESSURES

 CASE = RATTWORKS      

             REACTANT                    WT FRACTION      ENERGY      TEMP
                                          (SEE NOTE)     KJ/KG-MOL      K  
 OXIDANT     N2O                          1.0000000     81600.000    298.150
 FUEL        C3H6(L),propyle              1.0000000     -2704.000    225.460

 O/F=    1.00000  %FUEL= 50.000000  R,EQ.RATIO= 9.413442  PHI,EQ.RATIO= 9.413442

 THERMODYNAMIC PROPERTIES

 P, BAR            1.0000   2.5000   5.0000   7.5000   10.000   12.500   15.000   17.500
 T, K             1277.40  1292.01  1310.34  1324.51  1336.18  1346.15  1354.90  1362.70
 RHO, KG/CU M    1.6212-1 4.0309-1 8.0093-1 1.1956 0 1.5882 0 1.9790 0 2.3685 0 2.7568 0
 H, KJ/KG          894.87   894.87   894.87   894.87   894.87   894.87   894.87   894.87
 U, KJ/KG          278.04   274.66   270.60   267.60   265.22   263.24   261.56   260.09
 G, KJ/KG        -15453.1 -15069.8 -14861.9 -14777.1 -14733.6 -14709.0 -14694.7 -14686.4
 S, KJ/(KG)(K)    12.7978  12.3565  12.0249  11.8323  11.6964  11.5915  11.5061  11.4341

 M, (1/n)          17.218   17.320   17.452   17.556   17.644   17.720   17.788   17.849
 MW, MOL WT        12.157   12.228   12.322   12.399   12.464   12.521   12.573   12.620
 (dLV/dLP)t      -1.00489 -1.01047 -1.01727 -1.02234 -1.02639 -1.02977 -1.03265 -1.03516
 (dLV/dLT)p        1.0490   1.1031   1.1668   1.2128   1.2485   1.2776   1.3020   1.3229
 Cp, KJ/(KG)(K)    2.7112   2.9816   3.2842   3.4923   3.6480   3.7706   3.8705   3.9539
 GAMMAs            1.2362   1.2277   1.2199   1.2152   1.2121   1.2097   1.2078   1.2063
 SON VEL,M/SEC      873.2    872.6    872.7    873.1    873.6    874.1    874.6    875.1

 MASS FRACTIONS

 CH4              0.00314  0.00694  0.01192  0.01590  0.01926  0.02219  0.02479  0.02714
 *CO              0.31520  0.31188  0.30797  0.30512  0.30287  0.30101  0.29942  0.29804
 *CO2             0.00065  0.00135  0.00213  0.00267  0.00309  0.00343  0.00371  0.00395
 C2H4             0.00000  0.00000  0.00000  0.00001  0.00001  0.00001  0.00001  0.00002
 C2H6             0.00000  0.00000  0.00000  0.00000  0.00000  0.00000  0.00000  0.00001
 HCN              0.00011  0.00012  0.00014  0.00016  0.00018  0.00019  0.00021  0.00022
 *H2              0.07090  0.06977  0.06829  0.06713  0.06615  0.06531  0.06456  0.06388
 H2O              0.00140  0.00297  0.00484  0.00623  0.00733  0.00825  0.00904  0.00973
 NH3              0.00003  0.00007  0.00012  0.00016  0.00021  0.00024  0.00028  0.00031
 *N2              0.31816  0.31812  0.31807  0.31802  0.31798  0.31794  0.31790  0.31787
 C(gr)            0.29041  0.28878  0.28651  0.28459  0.28291  0.28142  0.28006  0.27882

  * THERMODYNAMIC PROPERTIES FITTED TO 20000.K

 NOTE. WEIGHT FRACTION OF FUEL IN TOTAL FUELS AND OF OXIDANT IN TOTAL OXIDANTS









         THERMODYNAMIC EQUILIBRIUM COMBUSTION PROPERTIES AT ASSIGNED

                                   PRESSURES

 CASE = RATTWORKS      

             REACTANT                    WT FRACTION      ENERGY      TEMP
                                          (SEE NOTE)     KJ/KG-MOL      K  
 OXIDANT     N2O                          1.0000000     81600.000    298.150
 FUEL        C3H6(L),propyle              1.0000000     -2704.000    225.460

 O/F=    1.00000  %FUEL= 50.000000  R,EQ.RATIO= 9.413442  PHI,EQ.RATIO= 9.413442

 THERMODYNAMIC PROPERTIES

 P, BAR            20.000   22.500   25.000   27.500   30.000   32.500   35.000   37.500
 T, K             1369.76  1376.22  1382.17  1387.70  1392.86  1397.71  1402.28  1406.61
 RHO, KG/CU M    3.1443 0 3.5308 0 3.9167 0 4.3019 0 4.6866 0 5.0707 0 5.4543 0 5.8375 0
 H, KJ/KG          894.87   894.87   894.87   894.87   894.87   894.87   894.87   894.87
 U, KJ/KG          258.79   257.63   256.58   255.62   254.75   253.93   253.18   252.48
 G, KJ/KG        -14682.1 -14680.4 -14680.4 -14681.7 -14683.9 -14686.7 -14690.1 -14693.8
 S, KJ/(KG)(K)    11.3720  11.3174  11.2687  11.2247  11.1847  11.1479  11.1140  11.0825

 M, (1/n)          17.905   17.956   18.004   18.049   18.092   18.132   18.170   18.206
 MW, MOL WT        12.663   12.703   12.741   12.776   12.810   12.841   12.871   12.900
 (dLV/dLP)t      -1.03739 -1.03938 -1.04118 -1.04282 -1.04432 -1.04571 -1.04700 -1.04819
 (dLV/dLT)p        1.3411   1.3573   1.3716   1.3846   1.3963   1.4071   1.4169   1.4260
 Cp, KJ/(KG)(K)    4.0250   4.0864   4.1401   4.1876   4.2298   4.2678   4.3020   4.3331
 GAMMAs            1.2050   1.2039   1.2029   1.2020   1.2012   1.2005   1.1998   1.1992
 SON VEL,M/SEC      875.5    875.9    876.2    876.6    876.9    877.2    877.5    877.7

 MASS FRACTIONS

 CH4              0.02929  0.03127  0.03311  0.03483  0.03645  0.03797  0.03942  0.04079
 *CO              0.29681  0.29571  0.29470  0.29378  0.29294  0.29215  0.29141  0.29072
 *CO2             0.00417  0.00436  0.00453  0.00469  0.00483  0.00496  0.00508  0.00520
 CH3CN            0.00000  0.00000  0.00001  0.00001  0.00001  0.00001  0.00001  0.00001
 C2H4             0.00002  0.00002  0.00002  0.00003  0.00003  0.00003  0.00003  0.00004
 C2H6             0.00001  0.00001  0.00001  0.00001  0.00001  0.00001  0.00001  0.00001
 HCN              0.00023  0.00025  0.00026  0.00027  0.00028  0.00029  0.00030  0.00031
 *H2              0.06327  0.06270  0.06217  0.06168  0.06122  0.06079  0.06038  0.05999
 H2O              0.01034  0.01090  0.01140  0.01187  0.01230  0.01269  0.01307  0.01342
 NH3              0.00035  0.00038  0.00040  0.00043  0.00046  0.00048  0.00051  0.00053
 *N2              0.31783  0.31780  0.31777  0.31774  0.31772  0.31769  0.31766  0.31764
 C(gr)            0.27767  0.27660  0.27559  0.27465  0.27376  0.27291  0.27210  0.27133

  * THERMODYNAMIC PROPERTIES FITTED TO 20000.K

 NOTE. WEIGHT FRACTION OF FUEL IN TOTAL FUELS AND OF OXIDANT IN TOTAL OXIDANTS









         THERMODYNAMIC EQUILIBRIUM COMBUSTION PROPERTIES AT ASSIGNED

                                   PRESSURES

 CASE = RATTWORKS      

             REACTANT                    WT FRACTION      ENERGY      TEMP
                                          (SEE NOTE)     KJ/KG-MOL      K  
 OXIDANT     N2O                          1.0000000     81600.000    298.150
 FUEL        C3H6(L),propyle              1.0000000     -2704.000    225.460

 O/F=    1.00000  %FUEL= 50.000000  R,EQ.RATIO= 9.413442  PHI,EQ.RATIO= 9.413442

 THERMODYNAMIC PROPERTIES

 P, BAR            40.000   42.500   45.000   47.500   50.000   55.000   60.000   65.000
 T, K             1410.71  1414.62  1418.35  1421.92  1425.34  1431.79  1437.78  1443.38
 RHO, KG/CU M    6.2204 0 6.6028 0 6.9849 0 7.3667 0 7.7482 0 8.5103 0 9.2715 0 1.0032 1
 H, KJ/KG          894.87   894.87   894.87   894.87   894.87   894.87   894.87   894.87
 U, KJ/KG          251.82   251.21   250.63   250.08   249.56   248.60   247.73   246.93
 G, KJ/KG        -14697.7 -14701.9 -14706.1 -14710.5 -14714.9 -14723.9 -14732.9 -14741.7
 S, KJ/(KG)(K)    11.0530  11.0254  10.9994  10.9749  10.9516  10.9086  10.8693  10.8334

 M, (1/n)          18.240   18.273   18.305   18.335   18.365   18.420   18.473   18.522
 MW, MOL WT        12.928   12.954   12.980   13.004   13.028   13.073   13.115   13.155
 (dLV/dLP)t      -1.04931 -1.05036 -1.05135 -1.05228 -1.05316 -1.05479 -1.05626 -1.05760
 (dLV/dLT)p        1.4344   1.4423   1.4496   1.4564   1.4628   1.4745   1.4849   1.4943
 Cp, KJ/(KG)(K)    4.3615   4.3874   4.4113   4.4333   4.4537   4.4902   4.5218   4.5496
 GAMMAs            1.1987   1.1981   1.1976   1.1971   1.1967   1.1958   1.1951   1.1944
 SON VEL,M/SEC      877.9    878.2    878.4    878.6    878.8    879.1    879.4    879.7

 MASS FRACTIONS

 CH4              0.04209  0.04334  0.04454  0.04569  0.04679  0.04888  0.05082  0.05265
 *CO              0.29007  0.28945  0.28887  0.28831  0.28778  0.28678  0.28587  0.28502
 *CO2             0.00531  0.00541  0.00551  0.00560  0.00568  0.00585  0.00600  0.00614
 CH3CN            0.00001  0.00001  0.00001  0.00001  0.00001  0.00001  0.00001  0.00002
 C2H4             0.00004  0.00004  0.00004  0.00005  0.00005  0.00005  0.00006  0.00006
 C2H6             0.00002  0.00002  0.00002  0.00002  0.00002  0.00002  0.00003  0.00003
 HCN              0.00032  0.00032  0.00033  0.00034  0.00035  0.00037  0.00038  0.00040
 HNCO             0.00000  0.00000  0.00000  0.00000  0.00000  0.00001  0.00001  0.00001
 *H2              0.05962  0.05927  0.05893  0.05860  0.05829  0.05770  0.05715  0.05663
 H2O              0.01375  0.01406  0.01436  0.01464  0.01491  0.01542  0.01588  0.01631
 NH3              0.00056  0.00058  0.00060  0.00062  0.00065  0.00069  0.00073  0.00076
 *N2              0.31761  0.31759  0.31757  0.31754  0.31752  0.31748  0.31744  0.31740
 C(gr)            0.27060  0.26989  0.26921  0.26856  0.26793  0.26673  0.26561  0.26456

  * THERMODYNAMIC PROPERTIES FITTED TO 20000.K

 NOTE. WEIGHT FRACTION OF FUEL IN TOTAL FUELS AND OF OXIDANT IN TOTAL OXIDANTS









         THERMODYNAMIC EQUILIBRIUM COMBUSTION PROPERTIES AT ASSIGNED

                                   PRESSURES

 CASE = RATTWORKS      

             REACTANT                    WT FRACTION      ENERGY      TEMP
                                          (SEE NOTE)     KJ/KG-MOL      K  
 OXIDANT     N2O                          1.0000000     81600.000    298.150
 FUEL        C3H6(L),propyle              1.0000000     -2704.000    225.460

 O/F=    1.00000  %FUEL= 50.000000  R,EQ.RATIO= 9.413442  PHI,EQ.RATIO= 9.413442

 THERMODYNAMIC PROPERTIES

 P, BAR            70.000
 T, K             1448.63
 RHO, KG/CU M    1.0791 1
 H, KJ/KG          894.87
 U, KJ/KG          246.20
 G, KJ/KG        -14750.5
 S, KJ/(KG)(K)    10.8001

 M, (1/n)          18.568
 MW, MOL WT        13.193
 (dLV/dLP)t      -1.05882
 (dLV/dLT)p        1.5028
 Cp, KJ/(KG)(K)    4.5741
 GAMMAs            1.1937
 SON VEL,M/SEC      880.0

 MASS FRACTIONS

 CH4              0.05437
 *CO              0.28423
 *CO2             0.00627
 CH3CN            0.00002
 C2H4             0.00007
 C2H6             0.00003
 HCN              0.00041
 HNCO             0.00001
 *H2              0.05615
 H2O              0.01672
 NH3              0.00080
 *N2              0.31736
 C(gr)            0.26356

  * THERMODYNAMIC PROPERTIES FITTED TO 20000.K

 NOTE. WEIGHT FRACTION OF FUEL IN TOTAL FUELS AND OF OXIDANT IN TOTAL OXIDANTS









         THERMODYNAMIC EQUILIBRIUM COMBUSTION PROPERTIES AT ASSIGNED

                                   PRESSURES

 CASE = RATTWORKS      

             REACTANT                    WT FRACTION      ENERGY      TEMP
                                          (SEE NOTE)     KJ/KG-MOL      K  
 OXIDANT     N2O                          1.0000000     81600.000    298.150
 FUEL        C3H6(L),propyle              1.0000000     -2704.000    225.460

 O/F=    1.25000  %FUEL= 44.444444  R,EQ.RATIO= 7.530754  PHI,EQ.RATIO= 7.530754

 THERMODYNAMIC PROPERTIES

 P, BAR            1.0000   2.5000   5.0000   7.5000   10.000   12.500   15.000   17.500
 T, K             1430.21  1435.67  1443.83  1451.09  1457.65  1463.63  1469.16  1474.29
 RHO, KG/CU M    1.4794-1 3.6927-1 7.3680-1 1.1029 0 1.4679 0 1.8320 0 2.1952 0 2.5576 0
 H, KJ/KG         1001.44  1001.44  1001.44  1001.44  1001.44  1001.44  1001.44  1001.44
 U, KJ/KG          325.51   324.42   322.83   321.44   320.22   319.12   318.12   317.21
 G, KJ/KG        -17380.7 -16829.7 -16459.9 -16271.5 -16153.3 -16071.3 -16011.0 -15964.8
 S, KJ/(KG)(K)    12.8527  12.4201  12.0937  11.9034  11.7688  11.6646  11.5797  11.5081

 M, (1/n)          17.593   17.632   17.690   17.743   17.791   17.835   17.876   17.915
 MW, MOL WT        13.184   13.216   13.265   13.309   13.350   13.387   13.422   13.456
 (dLV/dLP)t      -1.00157 -1.00372 -1.00689 -1.00966 -1.01212 -1.01433 -1.01634 -1.01817
 (dLV/dLT)p        1.0136   1.0322   1.0592   1.0824   1.1028   1.1210   1.1373   1.1521
 Cp, KJ/(KG)(K)    2.4193   2.5003   2.6168   2.7155   2.8007   2.8754   2.9417   3.0011
 GAMMAs            1.2487   1.2457   1.2416   1.2384   1.2358   1.2337   1.2318   1.2302
 SON VEL,M/SEC      918.7    918.3    917.9    917.7    917.5    917.5    917.4    917.4

 MASS FRACTIONS

 CH4              0.00104  0.00249  0.00470  0.00668  0.00849  0.01016  0.01170  0.01315
 *CO              0.35279  0.35173  0.35018  0.34882  0.34762  0.34654  0.34555  0.34464
 *CO2             0.00016  0.00037  0.00068  0.00094  0.00118  0.00139  0.00158  0.00175
 C2H2,acetylene   0.00000  0.00000  0.00000  0.00000  0.00000  0.00000  0.00000  0.00001
 CH3CN            0.00000  0.00000  0.00000  0.00000  0.00000  0.00000  0.00000  0.00001
 C2H4             0.00000  0.00000  0.00001  0.00001  0.00001  0.00001  0.00002  0.00002
 HCN              0.00040  0.00042  0.00044  0.00046  0.00048  0.00050  0.00052  0.00054
 HNC              0.00000  0.00000  0.00001  0.00001  0.00001  0.00001  0.00001  0.00001
 *H2              0.06355  0.06313  0.06248  0.06190  0.06138  0.06089  0.06045  0.06003
 H2O              0.00037  0.00087  0.00162  0.00227  0.00285  0.00338  0.00386  0.00430
 NH3              0.00001  0.00004  0.00007  0.00010  0.00013  0.00016  0.00018  0.00021
 *N2              0.35338  0.35335  0.35331  0.35328  0.35324  0.35321  0.35318  0.35315
 C(gr)            0.22829  0.22759  0.22650  0.22551  0.22460  0.22375  0.22294  0.22219

  * THERMODYNAMIC PROPERTIES FITTED TO 20000.K

 NOTE. WEIGHT FRACTION OF FUEL IN TOTAL FUELS AND OF OXIDANT IN TOTAL OXIDANTS









         THERMODYNAMIC EQUILIBRIUM COMBUSTION PROPERTIES AT ASSIGNED

                                   PRESSURES

 CASE = RATTWORKS      

             REACTANT                    WT FRACTION      ENERGY      TEMP
                                          (SEE NOTE)     KJ/KG-MOL      K  
 OXIDANT     N2O                          1.0000000     81600.000    298.150
 FUEL        C3H6(L),propyle              1.0000000     -2704.000    225.460

 O/F=    1.25000  %FUEL= 44.444444  R,EQ.RATIO= 7.530754  PHI,EQ.RATIO= 7.530754

 THERMODYNAMIC PROPERTIES

 P, BAR            20.000   22.500   25.000   27.500   30.000   32.500   35.000   37.500
 T, K             1479.08  1483.59  1487.84  1491.86  1495.69  1499.34  1502.82  1506.16
 RHO, KG/CU M    2.9194 0 3.2806 0 3.6413 0 4.0015 0 4.3612 0 4.7206 0 5.0795 0 5.4382 0
 H, KJ/KG         1001.44  1001.44  1001.44  1001.44  1001.44  1001.44  1001.44  1001.44
 U, KJ/KG          316.37   315.60   314.87   314.20   313.56   312.97   312.41   311.87
 G, KJ/KG        -15928.4 -15899.1 -15875.1 -15855.2 -15838.6 -15824.5 -15812.5 -15802.2
 S, KJ/(KG)(K)    11.4462  11.3917  11.3430  11.2991  11.2590  11.2222  11.1882  11.1566

 M, (1/n)          17.951   17.985   18.018   18.049   18.079   18.107   18.134   18.161
 MW, MOL WT        13.487   13.516   13.545   13.572   13.598   13.623   13.647   13.670
 (dLV/dLP)t      -1.01986 -1.02143 -1.02289 -1.02426 -1.02554 -1.02675 -1.02789 -1.02898
 (dLV/dLT)p        1.1656   1.1781   1.1896   1.2003   1.2102   1.2196   1.2283   1.2366
 Cp, KJ/(KG)(K)    3.0548   3.1037   3.1484   3.1896   3.2276   3.2629   3.2958   3.3265
 GAMMAs            1.2287   1.2274   1.2263   1.2252   1.2242   1.2233   1.2225   1.2217
 SON VEL,M/SEC      917.5    917.5    917.6    917.6    917.7    917.7    917.8    917.9

 MASS FRACTIONS

 CH4              0.01451  0.01580  0.01702  0.01818  0.01929  0.02035  0.02136  0.02234
 *CO              0.34381  0.34303  0.34230  0.34161  0.34096  0.34035  0.33976  0.33921
 *CO2             0.00191  0.00206  0.00219  0.00232  0.00244  0.00256  0.00266  0.00277
 C2H2,acetylene   0.00001  0.00001  0.00001  0.00001  0.00001  0.00001  0.00001  0.00001
 CH3CN            0.00001  0.00001  0.00001  0.00001  0.00001  0.00001  0.00001  0.00001
 C2H4             0.00002  0.00002  0.00003  0.00003  0.00003  0.00004  0.00004  0.00004
 C2H6             0.00000  0.00000  0.00000  0.00000  0.00000  0.00001  0.00001  0.00001
 HCN              0.00056  0.00057  0.00059  0.00060  0.00062  0.00063  0.00065  0.00066
 HNC              0.00001  0.00001  0.00001  0.00001  0.00001  0.00001  0.00001  0.00001
 *H2              0.05963  0.05926  0.05891  0.05858  0.05826  0.05795  0.05766  0.05738
 H2O              0.00471  0.00509  0.00545  0.00578  0.00610  0.00640  0.00669  0.00696
 NH3              0.00023  0.00026  0.00028  0.00030  0.00032  0.00034  0.00036  0.00038
 *N2              0.35312  0.35309  0.35306  0.35303  0.35301  0.35298  0.35296  0.35294
 C(gr)            0.22148  0.22080  0.22015  0.21953  0.21893  0.21836  0.21781  0.21728

  * THERMODYNAMIC PROPERTIES FITTED TO 20000.K

 NOTE. WEIGHT FRACTION OF FUEL IN TOTAL FUELS AND OF OXIDANT IN TOTAL OXIDANTS









         THERMODYNAMIC EQUILIBRIUM COMBUSTION PROPERTIES AT ASSIGNED

                                   PRESSURES

 CASE = RATTWORKS      

             REACTANT                    WT FRACTION      ENERGY      TEMP
                                          (SEE NOTE)     KJ/KG-MOL      K  
 OXIDANT     N2O                          1.0000000     81600.000    298.150
 FUEL        C3H6(L),propyle              1.0000000     -2704.000    225.460

 O/F=    1.25000  %FUEL= 44.444444  R,EQ.RATIO= 7.530754  PHI,EQ.RATIO= 7.530754

 THERMODYNAMIC PROPERTIES

 P, BAR            40.000   42.500   45.000   47.500   50.000   55.000   60.000   65.000
 T, K             1509.37  1512.45  1515.42  1518.28  1521.05  1526.32  1531.28  1535.96
 RHO, KG/CU M    5.7965 0 6.1544 0 6.5121 0 6.8696 0 7.2267 0 7.9404 0 8.6532 0 9.3652 0
 H, KJ/KG         1001.44  1001.44  1001.44  1001.44  1001.44  1001.44  1001.44  1001.44
 U, KJ/KG          311.37   310.89   310.43   309.99   309.57   308.78   308.06   307.38
 G, KJ/KG        -15793.4 -15785.8 -15779.3 -15773.6 -15768.6 -15760.7 -15754.7 -15750.3
 S, KJ/(KG)(K)    11.1271  11.0994  11.0733  11.0487  11.0253  10.9820  10.9426  10.9064

 M, (1/n)          18.186   18.210   18.234   18.257   18.279   18.322   18.362   18.400
 MW, MOL WT        13.692   13.714   13.734   13.755   13.775   13.812   13.848   13.883
 (dLV/dLP)t      -1.03000 -1.03098 -1.03191 -1.03280 -1.03365 -1.03525 -1.03672 -1.03809
 (dLV/dLT)p        1.2444   1.2518   1.2588   1.2654   1.2718   1.2836   1.2944   1.3043
 Cp, KJ/(KG)(K)    3.3553   3.3823   3.4078   3.4318   3.4546   3.4966   3.5346   3.5691
 GAMMAs            1.2210   1.2203   1.2197   1.2191   1.2185   1.2174   1.2164   1.2155
 SON VEL,M/SEC      917.9    918.0    918.1    918.1    918.2    918.3    918.4    918.5

 MASS FRACTIONS

 CH4              0.02328  0.02419  0.02506  0.02591  0.02673  0.02829  0.02977  0.03117
 *CO              0.33868  0.33817  0.33768  0.33721  0.33676  0.33591  0.33511  0.33436
 *CO2             0.00287  0.00296  0.00305  0.00314  0.00322  0.00337  0.00352  0.00366
 C2H2,acetylene   0.00001  0.00001  0.00001  0.00001  0.00001  0.00001  0.00001  0.00001
 CH3CN            0.00001  0.00001  0.00001  0.00001  0.00002  0.00002  0.00002  0.00002
 C2H4             0.00004  0.00005  0.00005  0.00005  0.00005  0.00006  0.00006  0.00007
 C2H6             0.00001  0.00001  0.00001  0.00001  0.00001  0.00001  0.00001  0.00002
 HCN              0.00067  0.00069  0.00070  0.00071  0.00072  0.00075  0.00077  0.00079
 HNC              0.00001  0.00001  0.00001  0.00001  0.00001  0.00001  0.00001  0.00001
 HNCO             0.00000  0.00000  0.00000  0.00001  0.00001  0.00001  0.00001  0.00001
 *H2              0.05711  0.05685  0.05660  0.05636  0.05612  0.05567  0.05525  0.05485
 HCHO,formaldehy  0.00000  0.00000  0.00000  0.00000  0.00000  0.00000  0.00000  0.00001
 H2O              0.00722  0.00747  0.00771  0.00794  0.00816  0.00858  0.00898  0.00935
 NH3              0.00040  0.00042  0.00044  0.00046  0.00047  0.00051  0.00054  0.00057
 *N2              0.35291  0.35289  0.35287  0.35285  0.35282  0.35278  0.35274  0.35270
 C(gr)            0.21677  0.21627  0.21579  0.21533  0.21487  0.21401  0.21318  0.21240

  * THERMODYNAMIC PROPERTIES FITTED TO 20000.K

 NOTE. WEIGHT FRACTION OF FUEL IN TOTAL FUELS AND OF OXIDANT IN TOTAL OXIDANTS









         THERMODYNAMIC EQUILIBRIUM COMBUSTION PROPERTIES AT ASSIGNED

                                   PRESSURES

 CASE = RATTWORKS      

             REACTANT                    WT FRACTION      ENERGY      TEMP
                                          (SEE NOTE)     KJ/KG-MOL      K  
 OXIDANT     N2O                          1.0000000     81600.000    298.150
 FUEL        C3H6(L),propyle              1.0000000     -2704.000    225.460

 O/F=    1.25000  %FUEL= 44.444444  R,EQ.RATIO= 7.530754  PHI,EQ.RATIO= 7.530754

 THERMODYNAMIC PROPERTIES

 P, BAR            70.000
 T, K             1540.39
 RHO, KG/CU M    1.0076 1
 H, KJ/KG         1001.44
 U, KJ/KG          306.76
 G, KJ/KG        -15747.1
 S, KJ/(KG)(K)    10.8729

 M, (1/n)          18.436
 MW, MOL WT        13.915
 (dLV/dLP)t      -1.03937
 (dLV/dLT)p        1.3135
 Cp, KJ/(KG)(K)    3.6006
 GAMMAs            1.2147
 SON VEL,M/SEC      918.6

 MASS FRACTIONS

 CH4              0.03250
 *CO              0.33366
 *CO2             0.00379
 C2H2,acetylene   0.00001
 CH3CN            0.00002
 C2H4             0.00007
 C2H6             0.00002
 HCN              0.00081
 HNC              0.00001
 HNCO             0.00001
 *H2              0.05447
 HCHO,formaldehy  0.00001
 H2O              0.00969
 NH3              0.00061
 *N2              0.35267
 C(gr)            0.21166

  * THERMODYNAMIC PROPERTIES FITTED TO 20000.K

 NOTE. WEIGHT FRACTION OF FUEL IN TOTAL FUELS AND OF OXIDANT IN TOTAL OXIDANTS









         THERMODYNAMIC EQUILIBRIUM COMBUSTION PROPERTIES AT ASSIGNED

                                   PRESSURES

 CASE = RATTWORKS      

             REACTANT                    WT FRACTION      ENERGY      TEMP
                                          (SEE NOTE)     KJ/KG-MOL      K  
 OXIDANT     N2O                          1.0000000     81600.000    298.150
 FUEL        C3H6(L),propyle              1.0000000     -2704.000    225.460

 O/F=    1.50000  %FUEL= 40.000000  R,EQ.RATIO= 6.275628  PHI,EQ.RATIO= 6.275628

 THERMODYNAMIC PROPERTIES

 P, BAR            1.0000   2.5000   5.0000   7.5000   10.000   12.500   15.000   17.500
 T, K             1570.32  1572.73  1576.50  1580.07  1583.47  1586.71  1589.82  1592.80
 RHO, KG/CU M    1.3739-1 3.4328-1 6.8597-1 1.0281 0 1.3698 0 1.7110 0 2.0518 0 2.3923 0
 H, KJ/KG         1086.70  1086.70  1086.70  1086.70  1086.70  1086.70  1086.70  1086.70
 U, KJ/KG          358.85   358.43   357.80   357.21   356.66   356.14   355.65   355.18
 G, KJ/KG        -19121.9 -18485.2 -18026.5 -17773.8 -17604.2 -17479.3 -17382.3 -17304.1
 S, KJ/(KG)(K)    12.8691  12.4446  12.1238  11.9365  11.8037  11.7009  11.6170  11.5462

 M, (1/n)          17.938   17.956   17.983   18.009   18.034   18.058   18.082   18.104
 MW, MOL WT        14.170   14.186   14.213   14.238   14.262   14.285   14.307   14.329
 (dLV/dLP)t      -1.00066 -1.00160 -1.00309 -1.00449 -1.00582 -1.00707 -1.00826 -1.00939
 (dLV/dLT)p        1.0053   1.0125   1.0239   1.0346   1.0447   1.0541   1.0631   1.0716
 Cp, KJ/(KG)(K)    2.3065   2.3336   2.3775   2.4186   2.4571   2.4931   2.5270   2.5589
 GAMMAs            1.2538   1.2528   1.2512   1.2497   1.2484   1.2471   1.2459   1.2449
 SON VEL,M/SEC      955.3    955.2    955.0    954.8    954.7    954.5    954.4    954.3

 MASS FRACTIONS

 CH4              0.00044  0.00108  0.00210  0.00307  0.00401  0.00490  0.00576  0.00658
 *CO              0.38157  0.38117  0.38054  0.37994  0.37937  0.37883  0.37832  0.37782
 *CO2             0.00005  0.00013  0.00026  0.00037  0.00048  0.00059  0.00069  0.00078
 C2H2,acetylene   0.00001  0.00002  0.00002  0.00002  0.00002  0.00002  0.00002  0.00002
 CH3CN            0.00000  0.00000  0.00000  0.00000  0.00000  0.00000  0.00001  0.00001
 C2H4             0.00000  0.00000  0.00001  0.00001  0.00001  0.00001  0.00002  0.00002
 HCN              0.00105  0.00106  0.00108  0.00111  0.00113  0.00115  0.00117  0.00119
 HNC              0.00002  0.00002  0.00002  0.00002  0.00002  0.00002  0.00002  0.00002
 *H2              0.05732  0.05713  0.05684  0.05655  0.05629  0.05603  0.05578  0.05554
 H2O              0.00013  0.00033  0.00063  0.00092  0.00120  0.00146  0.00171  0.00194
 NH3              0.00001  0.00002  0.00004  0.00006  0.00008  0.00010  0.00012  0.00014
 *N2              0.38133  0.38131  0.38128  0.38125  0.38123  0.38120  0.38117  0.38115
 C(gr)            0.17806  0.17773  0.17718  0.17667  0.17617  0.17569  0.17523  0.17478

  * THERMODYNAMIC PROPERTIES FITTED TO 20000.K

 NOTE. WEIGHT FRACTION OF FUEL IN TOTAL FUELS AND OF OXIDANT IN TOTAL OXIDANTS









         THERMODYNAMIC EQUILIBRIUM COMBUSTION PROPERTIES AT ASSIGNED

                                   PRESSURES

 CASE = RATTWORKS      

             REACTANT                    WT FRACTION      ENERGY      TEMP
                                          (SEE NOTE)     KJ/KG-MOL      K  
 OXIDANT     N2O                          1.0000000     81600.000    298.150
 FUEL        C3H6(L),propyle              1.0000000     -2704.000    225.460

 O/F=    1.50000  %FUEL= 40.000000  R,EQ.RATIO= 6.275628  PHI,EQ.RATIO= 6.275628

 THERMODYNAMIC PROPERTIES

 P, BAR            20.000   22.500   25.000   27.500   30.000   32.500   35.000   37.500
 T, K             1595.67  1598.43  1601.10  1603.67  1606.17  1608.58  1610.93  1613.20
 RHO, KG/CU M    2.7324 0 3.0721 0 3.4116 0 3.7507 0 4.0896 0 4.4282 0 4.7666 0 5.1048 0
 H, KJ/KG         1086.70  1086.70  1086.70  1086.70  1086.70  1086.70  1086.70  1086.70
 U, KJ/KG          354.73   354.30   353.90   353.51   353.13   352.77   352.43   352.10
 G, KJ/KG        -17239.4 -17184.8 -17138.0 -17097.4 -17061.8 -17030.4 -17002.3 -16977.2
 S, KJ/(KG)(K)    11.4849  11.4309  11.3827  11.3391  11.2993  11.2628  11.2290  11.1975

 M, (1/n)          18.125   18.146   18.166   18.186   18.205   18.223   18.241   18.259
 MW, MOL WT        14.350   14.370   14.390   14.409   14.427   14.445   14.463   14.480
 (dLV/dLP)t      -1.01046 -1.01149 -1.01248 -1.01342 -1.01432 -1.01519 -1.01603 -1.01684
 (dLV/dLT)p        1.0796   1.0873   1.0945   1.1015   1.1082   1.1145   1.1207   1.1266
 Cp, KJ/(KG)(K)    2.5890   2.6175   2.6446   2.6703   2.6948   2.7182   2.7405   2.7619
 GAMMAs            1.2439   1.2429   1.2420   1.2412   1.2404   1.2396   1.2389   1.2382
 SON VEL,M/SEC      954.2    954.1    954.0    954.0    953.9    953.8    953.8    953.7

 MASS FRACTIONS

 CH4              0.00738  0.00815  0.00889  0.00961  0.01031  0.01099  0.01165  0.01229
 *CO              0.37735  0.37690  0.37647  0.37605  0.37564  0.37525  0.37487  0.37451
 *CO2             0.00087  0.00096  0.00104  0.00112  0.00120  0.00128  0.00135  0.00142
 C2H2,acetylene   0.00002  0.00002  0.00002  0.00002  0.00002  0.00002  0.00002  0.00002
 CH3CN            0.00001  0.00001  0.00001  0.00001  0.00001  0.00001  0.00001  0.00001
 C2H4             0.00002  0.00003  0.00003  0.00003  0.00004  0.00004  0.00004  0.00004
 HCN              0.00120  0.00122  0.00124  0.00126  0.00127  0.00129  0.00131  0.00132
 HNC              0.00002  0.00002  0.00002  0.00003  0.00003  0.00003  0.00003  0.00003
 *H2              0.05531  0.05509  0.05487  0.05466  0.05446  0.05427  0.05408  0.05389
 H2O              0.00217  0.00239  0.00260  0.00281  0.00300  0.00319  0.00338  0.00355
 NH3              0.00016  0.00017  0.00019  0.00021  0.00022  0.00024  0.00025  0.00027
 *N2              0.38112  0.38110  0.38107  0.38105  0.38103  0.38101  0.38098  0.38096
 C(gr)            0.17435  0.17393  0.17352  0.17313  0.17275  0.17237  0.17201  0.17166

  * THERMODYNAMIC PROPERTIES FITTED TO 20000.K

 NOTE. WEIGHT FRACTION OF FUEL IN TOTAL FUELS AND OF OXIDANT IN TOTAL OXIDANTS









         THERMODYNAMIC EQUILIBRIUM COMBUSTION PROPERTIES AT ASSIGNED

                                   PRESSURES

 CASE = RATTWORKS      

             REACTANT                    WT FRACTION      ENERGY      TEMP
                                          (SEE NOTE)     KJ/KG-MOL      K  
 OXIDANT     N2O                          1.0000000     81600.000    298.150
 FUEL        C3H6(L),propyle              1.0000000     -2704.000    225.460

 O/F=    1.50000  %FUEL= 40.000000  R,EQ.RATIO= 6.275628  PHI,EQ.RATIO= 6.275628

 THERMODYNAMIC PROPERTIES

 P, BAR            40.000   42.500   45.000   47.500   50.000   55.000   60.000   65.000
 T, K             1615.41  1617.57  1619.66  1621.71  1623.70  1627.55  1631.23  1634.74
 RHO, KG/CU M    5.4427 0 5.7805 0 6.1180 0 6.4554 0 6.7925 0 7.4664 0 8.1396 0 8.8122 0
 H, KJ/KG         1086.70  1086.70  1086.70  1086.70  1086.70  1086.70  1086.70  1086.70
 U, KJ/KG          351.78   351.47   351.17   350.88   350.60   350.06   349.56   349.09
 G, KJ/KG        -16954.5 -16934.0 -16915.3 -16898.2 -16882.5 -16854.8 -16831.1 -16810.7
 S, KJ/(KG)(K)    11.1682  11.1406  11.1146  11.0901  11.0668  11.0236  10.9843  10.9481

 M, (1/n)          18.276   18.293   18.309   18.325   18.340   18.370   18.399   18.427
 MW, MOL WT        14.497   14.513   14.529   14.545   14.560   14.590   14.619   14.646
 (dLV/dLP)t      -1.01762 -1.01837 -1.01910 -1.01980 -1.02048 -1.02179 -1.02301 -1.02417
 (dLV/dLT)p        1.1322   1.1377   1.1429   1.1480   1.1529   1.1622   1.1709   1.1791
 Cp, KJ/(KG)(K)    2.7824   2.8020   2.8209   2.8390   2.8564   2.8895   2.9202   2.9490
 GAMMAs            1.2376   1.2370   1.2364   1.2358   1.2353   1.2342   1.2333   1.2324
 SON VEL,M/SEC      953.7    953.7    953.6    953.6    953.6    953.5    953.5    953.4

 MASS FRACTIONS

 CH4              0.01292  0.01353  0.01412  0.01470  0.01527  0.01636  0.01741  0.01842
 *CO              0.37415  0.37381  0.37347  0.37314  0.37283  0.37221  0.37163  0.37107
 *CO2             0.00149  0.00155  0.00162  0.00168  0.00174  0.00186  0.00197  0.00207
 C2H2,acetylene   0.00002  0.00002  0.00002  0.00002  0.00002  0.00002  0.00003  0.00003
 CH3CN            0.00002  0.00002  0.00002  0.00002  0.00002  0.00002  0.00002  0.00003
 C2H4             0.00005  0.00005  0.00005  0.00005  0.00006  0.00006  0.00007  0.00007
 C2H6             0.00000  0.00000  0.00000  0.00001  0.00001  0.00001  0.00001  0.00001
 HCN              0.00134  0.00135  0.00137  0.00138  0.00140  0.00142  0.00145  0.00148
 HNC              0.00003  0.00003  0.00003  0.00003  0.00003  0.00003  0.00003  0.00003
 HNCO             0.00000  0.00001  0.00001  0.00001  0.00001  0.00001  0.00001  0.00001
 *H2              0.05371  0.05353  0.05336  0.05320  0.05303  0.05272  0.05241  0.05212
 HCHO,formaldehy  0.00000  0.00000  0.00000  0.00000  0.00000  0.00000  0.00000  0.00001
 H2O              0.00373  0.00389  0.00406  0.00422  0.00437  0.00467  0.00495  0.00522
 NH3              0.00028  0.00030  0.00031  0.00033  0.00034  0.00037  0.00040  0.00042
 *N2              0.38094  0.38092  0.38090  0.38088  0.38086  0.38082  0.38078  0.38075
 C(gr)            0.17131  0.17098  0.17065  0.17032  0.17001  0.16940  0.16881  0.16825

  * THERMODYNAMIC PROPERTIES FITTED TO 20000.K

 NOTE. WEIGHT FRACTION OF FUEL IN TOTAL FUELS AND OF OXIDANT IN TOTAL OXIDANTS









         THERMODYNAMIC EQUILIBRIUM COMBUSTION PROPERTIES AT ASSIGNED

                                   PRESSURES

 CASE = RATTWORKS      

             REACTANT                    WT FRACTION      ENERGY      TEMP
                                          (SEE NOTE)     KJ/KG-MOL      K  
 OXIDANT     N2O                          1.0000000     81600.000    298.150
 FUEL        C3H6(L),propyle              1.0000000     -2704.000    225.460

 O/F=    1.50000  %FUEL= 40.000000  R,EQ.RATIO= 6.275628  PHI,EQ.RATIO= 6.275628

 THERMODYNAMIC PROPERTIES

 P, BAR            70.000
 T, K             1638.12
 RHO, KG/CU M    9.4843 0
 H, KJ/KG         1086.70
 U, KJ/KG          348.64
 G, KJ/KG        -16793.0
 S, KJ/(KG)(K)    10.9147

 M, (1/n)          18.454
 MW, MOL WT        14.673
 (dLV/dLP)t      -1.02527
 (dLV/dLT)p        1.1868
 Cp, KJ/(KG)(K)    2.9759
 GAMMAs            1.2315
 SON VEL,M/SEC      953.4

 MASS FRACTIONS

 CH3              0.00001
 CH4              0.01939
 *CO              0.37054
 *CO2             0.00218
 C2H2,acetylene   0.00003
 CH3CN            0.00003
 C2H4             0.00008
 C2H6             0.00001
 HCN              0.00150
 HNC              0.00003
 HNCO             0.00001
 *H2              0.05185
 HCHO,formaldehy  0.00001
 H2O              0.00548
 NH3              0.00045
 *N2              0.38071
 C(gr)            0.16771

  * THERMODYNAMIC PROPERTIES FITTED TO 20000.K

 NOTE. WEIGHT FRACTION OF FUEL IN TOTAL FUELS AND OF OXIDANT IN TOTAL OXIDANTS









         THERMODYNAMIC EQUILIBRIUM COMBUSTION PROPERTIES AT ASSIGNED

                                   PRESSURES

 CASE = RATTWORKS      

             REACTANT                    WT FRACTION      ENERGY      TEMP
                                          (SEE NOTE)     KJ/KG-MOL      K  
 OXIDANT     N2O                          1.0000000     81600.000    298.150
 FUEL        C3H6(L),propyle              1.0000000     -2704.000    225.460

 O/F=    2.00000  %FUEL= 33.333333  R,EQ.RATIO= 4.706721  PHI,EQ.RATIO= 4.706721

 THERMODYNAMIC PROPERTIES

 P, BAR            1.0000   2.5000   5.0000   7.5000   10.000   12.500   15.000   17.500
 T, K             1807.13  1808.32  1809.71  1810.94  1812.10  1813.23  1814.34  1815.42
 RHO, KG/CU M    1.2312-1 3.0771-1 6.1524-1 9.2268-1 1.2300 0 1.5373 0 1.8444 0 2.1515 0
 H, KJ/KG         1214.58  1214.58  1214.58  1214.58  1214.58  1214.58  1214.58  1214.58
 U, KJ/KG          402.39   402.12   401.90   401.73   401.58   401.45   401.32   401.19
 G, KJ/KG        -22003.8 -21274.6 -20728.3 -20413.6 -20193.5 -20025.4 -19890.0 -19777.2
 S, KJ/(KG)(K)    12.8482  12.4365  12.1251  11.9431  11.8140  11.7139  11.6321  11.5631

 M, (1/n)          18.500   18.506   18.515   18.524   18.532   18.541   18.549   18.557
 MW, MOL WT        15.996   16.003   16.014   16.024   16.034   16.045   16.055   16.064
 (dLV/dLP)t      -1.00026 -1.00052 -1.00097 -1.00142 -1.00187 -1.00231 -1.00274 -1.00316
 (dLV/dLT)p        1.0031   1.0043   1.0070   1.0098   1.0126   1.0154   1.0182   1.0209
 Cp, KJ/(KG)(K)    2.2216   2.2188   2.2243   2.2322   2.2408   2.2494   2.2582   2.2668
 GAMMAs            1.2552   1.2559   1.2559   1.2557   1.2554   1.2551   1.2548   1.2545
 SON VEL,M/SEC     1009.7   1010.1   1010.3   1010.3   1010.3   1010.2   1010.2   1010.1

 MASS FRACTIONS

 CH3              0.00000  0.00000  0.00000  0.00000  0.00000  0.00001  0.00001  0.00001
 CH4              0.00013  0.00032  0.00063  0.00093  0.00124  0.00154  0.00183  0.00212
 *CO              0.42420  0.42410  0.42393  0.42377  0.42361  0.42345  0.42329  0.42313
 *CO2             0.00001  0.00003  0.00007  0.00010  0.00013  0.00016  0.00019  0.00022
 C2H2,acetylene   0.00011  0.00012  0.00012  0.00012  0.00012  0.00012  0.00012  0.00012
 CH3CN            0.00000  0.00000  0.00000  0.00000  0.00001  0.00001  0.00001  0.00001
 C2H4             0.00000  0.00000  0.00001  0.00001  0.00001  0.00002  0.00002  0.00002
 *H               0.00001  0.00001  0.00001  0.00001  0.00000  0.00000  0.00000  0.00000
 HCN              0.00370  0.00371  0.00374  0.00375  0.00377  0.00379  0.00380  0.00382
 HNC              0.00012  0.00013  0.00013  0.00013  0.00013  0.00013  0.00013  0.00013
 *H2              0.04770  0.04765  0.04757  0.04748  0.04739  0.04730  0.04722  0.04713
 H2O              0.00003  0.00008  0.00016  0.00024  0.00032  0.00040  0.00047  0.00055
 NH3              0.00000  0.00001  0.00002  0.00003  0.00004  0.00005  0.00006  0.00007
 *N2              0.42234  0.42232  0.42230  0.42228  0.42227  0.42225  0.42223  0.42221
 C(gr)            0.10162  0.10151  0.10132  0.10114  0.10096  0.10078  0.10061  0.10044

  * THERMODYNAMIC PROPERTIES FITTED TO 20000.K

 NOTE. WEIGHT FRACTION OF FUEL IN TOTAL FUELS AND OF OXIDANT IN TOTAL OXIDANTS









         THERMODYNAMIC EQUILIBRIUM COMBUSTION PROPERTIES AT ASSIGNED

                                   PRESSURES

 CASE = RATTWORKS      

             REACTANT                    WT FRACTION      ENERGY      TEMP
                                          (SEE NOTE)     KJ/KG-MOL      K  
 OXIDANT     N2O                          1.0000000     81600.000    298.150
 FUEL        C3H6(L),propyle              1.0000000     -2704.000    225.460

 O/F=    2.00000  %FUEL= 33.333333  R,EQ.RATIO= 4.706721  PHI,EQ.RATIO= 4.706721

 THERMODYNAMIC PROPERTIES

 P, BAR            20.000   22.500   25.000   27.500   30.000   32.500   35.000   37.500
 T, K             1816.48  1817.53  1818.56  1819.57  1820.57  1821.56  1822.54  1823.50
 RHO, KG/CU M    2.4585 0 2.7654 0 3.0722 0 3.3790 0 3.6857 0 3.9923 0 4.2988 0 4.6053 0
 H, KJ/KG         1214.58  1214.58  1214.58  1214.58  1214.58  1214.58  1214.58  1214.58
 U, KJ/KG          401.07   400.96   400.84   400.73   400.62   400.51   400.41   400.31
 G, KJ/KG        -19680.8 -19597.0 -19523.0 -19457.0 -19397.6 -19343.6 -19294.2 -19248.9
 S, KJ/(KG)(K)    11.5032  11.4505  11.4033  11.3607  11.3218  11.2860  11.2529  11.2221

 M, (1/n)          18.565   18.573   18.581   18.589   18.597   18.605   18.612   18.620
 MW, MOL WT        16.074   16.084   16.093   16.103   16.112   16.121   16.130   16.139
 (dLV/dLP)t      -1.00358 -1.00399 -1.00440 -1.00479 -1.00518 -1.00557 -1.00595 -1.00632
 (dLV/dLT)p        1.0236   1.0262   1.0288   1.0313   1.0339   1.0363   1.0387   1.0411
 Cp, KJ/(KG)(K)    2.2754   2.2839   2.2922   2.3005   2.3086   2.3166   2.3244   2.3321
 GAMMAs            1.2541   1.2538   1.2535   1.2532   1.2528   1.2525   1.2522   1.2519
 SON VEL,M/SEC     1010.1   1010.0   1010.0   1009.9   1009.8   1009.8   1009.7   1009.7

 MASS FRACTIONS

 CH3              0.00001  0.00001  0.00001  0.00001  0.00001  0.00001  0.00001  0.00001
 CH4              0.00241  0.00269  0.00297  0.00325  0.00352  0.00379  0.00406  0.00433
 *CO              0.42298  0.42283  0.42268  0.42253  0.42238  0.42224  0.42210  0.42195
 *CO2             0.00025  0.00028  0.00031  0.00034  0.00037  0.00040  0.00043  0.00045
 C2H2,acetylene   0.00012  0.00012  0.00012  0.00012  0.00013  0.00013  0.00013  0.00013
 CH3CN            0.00001  0.00001  0.00001  0.00001  0.00002  0.00002  0.00002  0.00002
 C2H4             0.00002  0.00003  0.00003  0.00003  0.00004  0.00004  0.00004  0.00004
 HCN              0.00384  0.00385  0.00387  0.00388  0.00390  0.00391  0.00393  0.00394
 HNC              0.00013  0.00013  0.00013  0.00014  0.00014  0.00014  0.00014  0.00014
 *H2              0.04705  0.04697  0.04689  0.04681  0.04673  0.04665  0.04657  0.04649
 H2O              0.00062  0.00069  0.00077  0.00084  0.00091  0.00098  0.00105  0.00111
 NH3              0.00008  0.00009  0.00010  0.00011  0.00012  0.00013  0.00013  0.00014
 *N2              0.42220  0.42218  0.42216  0.42215  0.42213  0.42211  0.42210  0.42208
 C(gr)            0.10027  0.10010  0.09994  0.09977  0.09961  0.09945  0.09929  0.09914

  * THERMODYNAMIC PROPERTIES FITTED TO 20000.K

 NOTE. WEIGHT FRACTION OF FUEL IN TOTAL FUELS AND OF OXIDANT IN TOTAL OXIDANTS









         THERMODYNAMIC EQUILIBRIUM COMBUSTION PROPERTIES AT ASSIGNED

                                   PRESSURES

 CASE = RATTWORKS      

             REACTANT                    WT FRACTION      ENERGY      TEMP
                                          (SEE NOTE)     KJ/KG-MOL      K  
 OXIDANT     N2O                          1.0000000     81600.000    298.150
 FUEL        C3H6(L),propyle              1.0000000     -2704.000    225.460

 O/F=    2.00000  %FUEL= 33.333333  R,EQ.RATIO= 4.706721  PHI,EQ.RATIO= 4.706721

 THERMODYNAMIC PROPERTIES

 P, BAR            40.000   42.500   45.000   47.500   50.000   55.000   60.000   65.000
 T, K             1824.45  1825.39  1826.32  1827.24  1828.14  1829.93  1831.68  1833.39
 RHO, KG/CU M    4.9117 0 5.2181 0 5.5244 0 5.8306 0 6.1367 0 6.7489 0 7.3608 0 7.9725 0
 H, KJ/KG         1214.58  1214.58  1214.58  1214.58  1214.58  1214.58  1214.58  1214.58
 U, KJ/KG          400.21   400.11   400.01   399.91   399.82   399.64   399.46   399.29
 G, KJ/KG        -19207.0 -19168.1 -19131.9 -19098.1 -19066.4 -19008.5 -18956.8 -18910.4
 S, KJ/(KG)(K)    11.1933  11.1662  11.1407  11.1166  11.0937  11.0513  11.0125  10.9769

 M, (1/n)          18.627   18.634   18.642   18.649   18.656   18.670   18.684   18.697
 MW, MOL WT        16.148   16.157   16.166   16.174   16.183   16.200   16.216   16.233
 (dLV/dLP)t      -1.00669 -1.00705 -1.00740 -1.00776 -1.00810 -1.00878 -1.00944 -1.01007
 (dLV/dLT)p        1.0435   1.0458   1.0480   1.0503   1.0525   1.0568   1.0610   1.0650
 Cp, KJ/(KG)(K)    2.3397   2.3472   2.3546   2.3618   2.3690   2.3829   2.3964   2.4095
 GAMMAs            1.2516   1.2513   1.2510   1.2507   1.2505   1.2499   1.2494   1.2488
 SON VEL,M/SEC     1009.6   1009.5   1009.5   1009.4   1009.4   1009.3   1009.2   1009.0

 MASS FRACTIONS

 CH3              0.00001  0.00001  0.00001  0.00001  0.00001  0.00001  0.00001  0.00001
 CH4              0.00459  0.00485  0.00510  0.00535  0.00560  0.00610  0.00658  0.00705
 *CO              0.42182  0.42168  0.42154  0.42141  0.42127  0.42101  0.42075  0.42050
 *CO2             0.00048  0.00051  0.00054  0.00056  0.00059  0.00064  0.00069  0.00074
 C2H2,acetylene   0.00013  0.00013  0.00013  0.00013  0.00013  0.00013  0.00013  0.00014
 CH2CO,ketene     0.00000  0.00000  0.00000  0.00001  0.00001  0.00001  0.00001  0.00001
 CH3CN            0.00002  0.00002  0.00002  0.00003  0.00003  0.00003  0.00003  0.00003
 C2H4             0.00005  0.00005  0.00005  0.00006  0.00006  0.00007  0.00007  0.00008
 HCN              0.00395  0.00397  0.00398  0.00400  0.00401  0.00404  0.00406  0.00409
 HNC              0.00014  0.00014  0.00014  0.00014  0.00014  0.00014  0.00015  0.00015
 HNCO             0.00001  0.00001  0.00001  0.00001  0.00001  0.00001  0.00001  0.00001
 *H2              0.04642  0.04634  0.04627  0.04620  0.04612  0.04598  0.04584  0.04570
 HCHO,formaldehy  0.00000  0.00000  0.00000  0.00000  0.00000  0.00000  0.00000  0.00001
 H2O              0.00118  0.00125  0.00131  0.00138  0.00144  0.00157  0.00169  0.00181
 NH3              0.00015  0.00016  0.00017  0.00018  0.00019  0.00020  0.00022  0.00024
 *N2              0.42207  0.42205  0.42204  0.42202  0.42200  0.42197  0.42195  0.42192
 C(gr)            0.09898  0.09883  0.09868  0.09853  0.09838  0.09809  0.09780  0.09752

  * THERMODYNAMIC PROPERTIES FITTED TO 20000.K

 NOTE. WEIGHT FRACTION OF FUEL IN TOTAL FUELS AND OF OXIDANT IN TOTAL OXIDANTS









         THERMODYNAMIC EQUILIBRIUM COMBUSTION PROPERTIES AT ASSIGNED

                                   PRESSURES

 CASE = RATTWORKS      

             REACTANT                    WT FRACTION      ENERGY      TEMP
                                          (SEE NOTE)     KJ/KG-MOL      K  
 OXIDANT     N2O                          1.0000000     81600.000    298.150
 FUEL        C3H6(L),propyle              1.0000000     -2704.000    225.460

 O/F=    2.00000  %FUEL= 33.333333  R,EQ.RATIO= 4.706721  PHI,EQ.RATIO= 4.706721

 THERMODYNAMIC PROPERTIES

 P, BAR            70.000
 T, K             1835.06
 RHO, KG/CU M    8.5841 0
 H, KJ/KG         1214.58
 U, KJ/KG          399.12
 G, KJ/KG        -18868.3
 S, KJ/(KG)(K)    10.9440

 M, (1/n)          18.710
 MW, MOL WT        16.249
 (dLV/dLP)t      -1.01070
 (dLV/dLT)p        1.0690
 Cp, KJ/(KG)(K)    2.4223
 GAMMAs            1.2483
 SON VEL,M/SEC     1008.9

 MASS FRACTIONS

 CH3              0.00001
 CH4              0.00751
 *CO              0.42025
 *CO2             0.00079
 C2H2,acetylene   0.00014
 CH2CO,ketene     0.00001
 CH3CN            0.00004
 C2H4             0.00008
 HCN              0.00412
 HNC              0.00015
 HNCO             0.00001
 *H2              0.04557
 HCHO,formaldehy  0.00001
 H2O              0.00193
 NH3              0.00025
 *N2              0.42189
 C(gr)            0.09725

  * THERMODYNAMIC PROPERTIES FITTED TO 20000.K

 NOTE. WEIGHT FRACTION OF FUEL IN TOTAL FUELS AND OF OXIDANT IN TOTAL OXIDANTS









         THERMODYNAMIC EQUILIBRIUM COMBUSTION PROPERTIES AT ASSIGNED

                                   PRESSURES

 CASE = RATTWORKS      

             REACTANT                    WT FRACTION      ENERGY      TEMP
                                          (SEE NOTE)     KJ/KG-MOL      K  
 OXIDANT     N2O                          1.0000000     81600.000    298.150
 FUEL        C3H6(L),propyle              1.0000000     -2704.000    225.460

 O/F=    2.25000  %FUEL= 30.769231  R,EQ.RATIO= 4.183752  PHI,EQ.RATIO= 4.183752

 THERMODYNAMIC PROPERTIES

 P, BAR            1.0000   2.5000   5.0000   7.5000   10.000   12.500   15.000   17.500
 T, K             1906.03  1907.53  1908.79  1909.74  1910.59  1911.38  1912.15  1912.89
 RHO, KG/CU M    1.1816-1 2.9525-1 5.9031-1 8.8531-1 1.1803 0 1.4752 0 1.7700 0 2.0648 0
 H, KJ/KG         1263.77  1263.77  1263.77  1263.77  1263.77  1263.77  1263.77  1263.77
 U, KJ/KG          417.45   417.02   416.76   416.61   416.50   416.40   416.32   416.24
 G, KJ/KG        -23182.9 -22426.1 -21854.5 -21522.5 -21288.8 -21109.1 -20963.5 -20841.5
 S, KJ/(KG)(K)    12.8260  12.4192  12.1115  11.9316  11.8040  11.7051  11.6243  11.5560

 M, (1/n)          18.725   18.731   18.737   18.743   18.749   18.755   18.760   18.766
 MW, MOL WT        16.843   16.850   16.858   16.866   16.873   16.881   16.888   16.895
 (dLV/dLP)t      -1.00026 -1.00039 -1.00067 -1.00095 -1.00124 -1.00153 -1.00181 -1.00209
 (dLV/dLT)p        1.0045   1.0043   1.0054   1.0069   1.0085   1.0102   1.0118   1.0135
 Cp, KJ/(KG)(K)    2.2194   2.2063   2.2037   2.2056   2.2091   2.2131   2.2175   2.2221
 GAMMAs            1.2525   1.2540   1.2545   1.2546   1.2546   1.2545   1.2544   1.2542
 SON VEL,M/SEC     1029.6   1030.4   1030.8   1031.0   1031.0   1031.0   1031.0   1031.0

 MASS FRACTIONS

 CH3              0.00000  0.00000  0.00000  0.00001  0.00001  0.00001  0.00001  0.00001
 CH4              0.00008  0.00020  0.00040  0.00059  0.00079  0.00098  0.00117  0.00136
 *CO              0.44055  0.44049  0.44038  0.44028  0.44018  0.44008  0.43998  0.43988
 *CO2             0.00001  0.00002  0.00004  0.00006  0.00008  0.00010  0.00012  0.00014
 C2H2,acetylene   0.00023  0.00023  0.00023  0.00023  0.00023  0.00024  0.00024  0.00024
 CH3CN            0.00000  0.00000  0.00000  0.00000  0.00001  0.00001  0.00001  0.00001
 C2H4             0.00000  0.00000  0.00001  0.00001  0.00001  0.00001  0.00002  0.00002
 *H               0.00003  0.00002  0.00001  0.00001  0.00001  0.00001  0.00001  0.00001
 HCN              0.00564  0.00568  0.00570  0.00572  0.00574  0.00576  0.00577  0.00578
 HNC              0.00024  0.00024  0.00024  0.00024  0.00024  0.00024  0.00025  0.00025
 *H2              0.04393  0.04391  0.04385  0.04380  0.04374  0.04369  0.04363  0.04358
 H2O              0.00002  0.00005  0.00010  0.00015  0.00020  0.00024  0.00029  0.00034
 NH3              0.00000  0.00001  0.00002  0.00002  0.00003  0.00004  0.00005  0.00005
 *N2              0.43759  0.43757  0.43755  0.43753  0.43751  0.43750  0.43748  0.43747
 C(gr)            0.07168  0.07159  0.07146  0.07134  0.07122  0.07110  0.07098  0.07086

  * THERMODYNAMIC PROPERTIES FITTED TO 20000.K

 NOTE. WEIGHT FRACTION OF FUEL IN TOTAL FUELS AND OF OXIDANT IN TOTAL OXIDANTS









         THERMODYNAMIC EQUILIBRIUM COMBUSTION PROPERTIES AT ASSIGNED

                                   PRESSURES

 CASE = RATTWORKS      

             REACTANT                    WT FRACTION      ENERGY      TEMP
                                          (SEE NOTE)     KJ/KG-MOL      K  
 OXIDANT     N2O                          1.0000000     81600.000    298.150
 FUEL        C3H6(L),propyle              1.0000000     -2704.000    225.460

 O/F=    2.25000  %FUEL= 30.769231  R,EQ.RATIO= 4.183752  PHI,EQ.RATIO= 4.183752

 THERMODYNAMIC PROPERTIES

 P, BAR            20.000   22.500   25.000   27.500   30.000   32.500   35.000   37.500
 T, K             1913.61  1914.33  1915.03  1915.72  1916.40  1917.08  1917.74  1918.40
 RHO, KG/CU M    2.3596 0 2.6543 0 2.9490 0 3.2437 0 3.5383 0 3.8328 0 4.1274 0 4.4219 0
 H, KJ/KG         1263.77  1263.77  1263.77  1263.77  1263.77  1263.77  1263.77  1263.77
 U, KJ/KG          416.17   416.10   416.03   415.96   415.90   415.84   415.78   415.72
 G, KJ/KG        -20736.7 -20645.0 -20563.7 -20490.8 -20424.8 -20364.5 -20309.2 -20258.1
 S, KJ/(KG)(K)    11.4968  11.4446  11.3980  11.3558  11.3173  11.2819  11.2491  11.2186

 M, (1/n)          18.771   18.777   18.782   18.788   18.793   18.798   18.803   18.809
 MW, MOL WT        16.903   16.910   16.917   16.924   16.931   16.938   16.944   16.951
 (dLV/dLP)t      -1.00237 -1.00265 -1.00292 -1.00319 -1.00345 -1.00372 -1.00398 -1.00424
 (dLV/dLT)p        1.0151   1.0167   1.0184   1.0200   1.0216   1.0231   1.0247   1.0263
 Cp, KJ/(KG)(K)    2.2268   2.2315   2.2363   2.2410   2.2458   2.2505   2.2552   2.2599
 GAMMAs            1.2541   1.2539   1.2537   1.2535   1.2533   1.2532   1.2530   1.2528
 SON VEL,M/SEC     1031.0   1031.0   1030.9   1030.9   1030.9   1030.8   1030.8   1030.7

 MASS FRACTIONS

 CH3              0.00001  0.00001  0.00001  0.00001  0.00001  0.00001  0.00001  0.00001
 CH4              0.00155  0.00173  0.00192  0.00210  0.00228  0.00246  0.00264  0.00282
 *CO              0.43978  0.43968  0.43959  0.43949  0.43939  0.43930  0.43921  0.43911
 *CO2             0.00016  0.00018  0.00020  0.00022  0.00024  0.00026  0.00028  0.00029
 C2H2,acetylene   0.00024  0.00024  0.00024  0.00024  0.00024  0.00024  0.00024  0.00024
 CH3CN            0.00001  0.00001  0.00001  0.00002  0.00002  0.00002  0.00002  0.00002
 C2H4             0.00002  0.00003  0.00003  0.00003  0.00004  0.00004  0.00004  0.00004
 *H               0.00001  0.00001  0.00001  0.00001  0.00001  0.00001  0.00001  0.00001
 HCN              0.00580  0.00581  0.00583  0.00584  0.00585  0.00587  0.00588  0.00589
 HNC              0.00025  0.00025  0.00025  0.00025  0.00025  0.00025  0.00025  0.00025
 *H2              0.04352  0.04347  0.04341  0.04336  0.04331  0.04325  0.04320  0.04315
 H2O              0.00039  0.00043  0.00048  0.00052  0.00057  0.00061  0.00066  0.00070
 NH3              0.00006  0.00007  0.00007  0.00008  0.00009  0.00010  0.00010  0.00011
 *N2              0.43745  0.43744  0.43743  0.43741  0.43740  0.43738  0.43737  0.43736
 C(gr)            0.07075  0.07063  0.07052  0.07041  0.07029  0.07018  0.07007  0.06996

  * THERMODYNAMIC PROPERTIES FITTED TO 20000.K

 NOTE. WEIGHT FRACTION OF FUEL IN TOTAL FUELS AND OF OXIDANT IN TOTAL OXIDANTS









         THERMODYNAMIC EQUILIBRIUM COMBUSTION PROPERTIES AT ASSIGNED

                                   PRESSURES

 CASE = RATTWORKS      

             REACTANT                    WT FRACTION      ENERGY      TEMP
                                          (SEE NOTE)     KJ/KG-MOL      K  
 OXIDANT     N2O                          1.0000000     81600.000    298.150
 FUEL        C3H6(L),propyle              1.0000000     -2704.000    225.460

 O/F=    2.25000  %FUEL= 30.769231  R,EQ.RATIO= 4.183752  PHI,EQ.RATIO= 4.183752

 THERMODYNAMIC PROPERTIES

 P, BAR            40.000   42.500   45.000   47.500   50.000   55.000   60.000   65.000
 T, K             1919.06  1919.71  1920.35  1920.98  1921.61  1922.86  1924.08  1925.29
 RHO, KG/CU M    4.7164 0 5.0108 0 5.3052 0 5.5996 0 5.8939 0 6.4825 0 7.0710 0 7.6593 0
 H, KJ/KG         1263.77  1263.77  1263.77  1263.77  1263.77  1263.77  1263.77  1263.77
 U, KJ/KG          415.66   415.60   415.55   415.49   415.44   415.33   415.23   415.13
 G, KJ/KG        -20210.7 -20166.5 -20125.2 -20086.4 -20049.9 -19982.8 -19922.4 -19867.8
 S, KJ/(KG)(K)    11.1901  11.1633  11.1381  11.1142  11.0915  11.0495  11.0111  10.9758

 M, (1/n)          18.814   18.819   18.824   18.829   18.834   18.844   18.853   18.863
 MW, MOL WT        16.958   16.965   16.971   16.978   16.985   16.998   17.010   17.023
 (dLV/dLP)t      -1.00449 -1.00475 -1.00500 -1.00525 -1.00549 -1.00597 -1.00645 -1.00691
 (dLV/dLT)p        1.0278   1.0293   1.0308   1.0323   1.0338   1.0367   1.0395   1.0423
 Cp, KJ/(KG)(K)    2.2646   2.2692   2.2737   2.2783   2.2828   2.2916   2.3004   2.3089
 GAMMAs            1.2526   1.2524   1.2522   1.2520   1.2518   1.2515   1.2511   1.2507
 SON VEL,M/SEC     1030.7   1030.7   1030.6   1030.6   1030.5   1030.4   1030.3   1030.3

 MASS FRACTIONS

 CH3              0.00001  0.00001  0.00001  0.00001  0.00001  0.00002  0.00002  0.00002
 CH4              0.00300  0.00317  0.00334  0.00352  0.00369  0.00402  0.00436  0.00468
 *CO              0.43902  0.43893  0.43884  0.43875  0.43866  0.43848  0.43830  0.43813
 *CO2             0.00031  0.00033  0.00035  0.00037  0.00039  0.00042  0.00046  0.00049
 C2H2,acetylene   0.00025  0.00025  0.00025  0.00025  0.00025  0.00025  0.00025  0.00025
 CH2CO,ketene     0.00001  0.00001  0.00001  0.00001  0.00001  0.00001  0.00001  0.00001
 CH3CN            0.00002  0.00002  0.00003  0.00003  0.00003  0.00003  0.00004  0.00004
 C2H4             0.00005  0.00005  0.00005  0.00006  0.00006  0.00006  0.00007  0.00007
 HCN              0.00590  0.00592  0.00593  0.00594  0.00595  0.00598  0.00600  0.00603
 HNC              0.00025  0.00026  0.00026  0.00026  0.00026  0.00026  0.00026  0.00026
 HNCO             0.00001  0.00001  0.00001  0.00001  0.00001  0.00001  0.00001  0.00001
 *H2              0.04310  0.04305  0.04300  0.04295  0.04290  0.04280  0.04270  0.04260
 HCHO,formaldehy  0.00000  0.00000  0.00000  0.00000  0.00000  0.00000  0.00000  0.00001
 H2O              0.00075  0.00079  0.00083  0.00088  0.00092  0.00100  0.00109  0.00117
 NH3              0.00012  0.00012  0.00013  0.00014  0.00014  0.00016  0.00017  0.00018
 *N2              0.43734  0.43733  0.43732  0.43730  0.43729  0.43727  0.43724  0.43721
 C(gr)            0.06986  0.06975  0.06964  0.06954  0.06943  0.06922  0.06902  0.06882

  * THERMODYNAMIC PROPERTIES FITTED TO 20000.K

 NOTE. WEIGHT FRACTION OF FUEL IN TOTAL FUELS AND OF OXIDANT IN TOTAL OXIDANTS









         THERMODYNAMIC EQUILIBRIUM COMBUSTION PROPERTIES AT ASSIGNED

                                   PRESSURES

 CASE = RATTWORKS      

             REACTANT                    WT FRACTION      ENERGY      TEMP
                                          (SEE NOTE)     KJ/KG-MOL      K  
 OXIDANT     N2O                          1.0000000     81600.000    298.150
 FUEL        C3H6(L),propyle              1.0000000     -2704.000    225.460

 O/F=    2.25000  %FUEL= 30.769231  R,EQ.RATIO= 4.183752  PHI,EQ.RATIO= 4.183752

 THERMODYNAMIC PROPERTIES

 P, BAR            70.000
 T, K             1926.47
 RHO, KG/CU M    8.2476 0
 H, KJ/KG         1263.77
 U, KJ/KG          415.04
 G, KJ/KG        -19817.9
 S, KJ/(KG)(K)    10.9431

 M, (1/n)          18.872
 MW, MOL WT        17.036
 (dLV/dLP)t      -1.00737
 (dLV/dLT)p        1.0450
 Cp, KJ/(KG)(K)    2.3173
 GAMMAs            1.2504
 SON VEL,M/SEC     1030.2

 MASS FRACTIONS

 CH3              0.00002
 CH4              0.00501
 *CO              0.43796
 *CO2             0.00053
 C2H2,acetylene   0.00026
 CH2CO,ketene     0.00001
 CH3CN            0.00004
 C2H4             0.00008
 HCN              0.00605
 HNC              0.00026
 HNCO             0.00001
 *H2              0.04251
 HCHO,formaldehy  0.00001
 H2O              0.00125
 NH3              0.00020
 *N2              0.43719
 C(gr)            0.06862

  * THERMODYNAMIC PROPERTIES FITTED TO 20000.K

 NOTE. WEIGHT FRACTION OF FUEL IN TOTAL FUELS AND OF OXIDANT IN TOTAL OXIDANTS









         THERMODYNAMIC EQUILIBRIUM COMBUSTION PROPERTIES AT ASSIGNED

                                   PRESSURES

 CASE = RATTWORKS      

             REACTANT                    WT FRACTION      ENERGY      TEMP
                                          (SEE NOTE)     KJ/KG-MOL      K  
 OXIDANT     N2O                          1.0000000     81600.000    298.150
 FUEL        C3H6(L),propyle              1.0000000     -2704.000    225.460

 O/F=    2.50000  %FUEL= 28.571429  R,EQ.RATIO= 3.765377  PHI,EQ.RATIO= 3.765377

 THERMODYNAMIC PROPERTIES

 P, BAR            1.0000   2.5000   5.0000   7.5000   10.000   12.500   15.000   17.500
 T, K             1993.67  1995.87  1997.34  1998.26  1999.00  1999.65  2000.26  2000.83
 RHO, KG/CU M    1.1415-1 2.8515-1 5.7005-1 8.5489-1 1.1397 0 1.4245 0 1.7092 0 1.9939 0
 H, KJ/KG         1305.93  1305.93  1305.93  1305.93  1305.93  1305.93  1305.93  1305.93
 U, KJ/KG          429.90   429.19   428.81   428.62   428.50   428.40   428.33   428.26
 G, KJ/KG        -24214.4 -23439.1 -22849.2 -22504.6 -22260.9 -22072.8 -21919.9 -21791.3
 S, KJ/(KG)(K)    12.8007  12.3981  12.0937  11.9156  11.7894  11.6914  11.6114  11.5438

 M, (1/n)          18.922   18.928   18.933   18.938   18.942   18.947   18.951   18.955
 MW, MOL WT        17.652   17.659   17.667   17.673   17.680   17.685   17.691   17.697
 (dLV/dLP)t      -1.00033 -1.00037 -1.00053 -1.00072 -1.00091 -1.00111 -1.00130 -1.00150
 (dLV/dLT)p        1.0071   1.0054   1.0054   1.0061   1.0069   1.0079   1.0089   1.0099
 Cp, KJ/(KG)(K)    2.2367   2.2119   2.2018   2.1993   2.1993   2.2003   2.2020   2.2041
[...]
 (dLV/dLP)t      -1.00405 -1.00305 -1.00243 -1.00212 -1.00192 -1.00178 -1.00167 -1.00159
 (dLV/dLT)p        1.1037   1.0778   1.0618   1.0538   1.0487   1.0451   1.0423   1.0400
 Cp, KJ/(KG)(K)    2.2342   2.0435   1.9279   1.8705   1.8340   1.8079   1.7879   1.7719
 GAMMAs            1.1794   1.1897   1.1969   1.2008   1.2034   1.2054   1.2069   1.2081
 SON VEL,M/SEC      922.2    930.2    935.6    938.5    940.4    941.7    942.8    943.7

 MASS FRACTIONS

 *CO              0.00405  0.00302  0.00237  0.00203  0.00182  0.00167  0.00155  0.00146
 *CO2             0.07513  0.07675  0.07778  0.07830  0.07864  0.07888  0.07906  0.07921
 *H               0.00002  0.00001  0.00001  0.00001  0.00001  0.00001  0.00000  0.00000
 HO2              0.00001  0.00002  0.00002  0.00002  0.00003  0.00003  0.00003  0.00003
 *H2              0.00004  0.00003  0.00003  0.00002  0.00002  0.00002  0.00002  0.00002
 H2O              0.02911  0.02975  0.03020  0.03045  0.03061  0.03073  0.03083  0.03091
 *NO              0.02271  0.02383  0.02455  0.02492  0.02516  0.02534  0.02547  0.02558
 NO2              0.00003  0.00005  0.00007  0.00009  0.00011  0.00012  0.00013  0.00014
 *N2              0.60934  0.60881  0.60847  0.60829  0.60817  0.60808  0.60802  0.60796
 N2O              0.00000  0.00000  0.00000  0.00001  0.00001  0.00001  0.00001  0.00001
 *O               0.00412  0.00298  0.00229  0.00195  0.00173  0.00158  0.00147  0.00137
 *OH              0.00687  0.00601  0.00536  0.00499  0.00474  0.00455  0.00439  0.00426
 *O2              0.24855  0.24873  0.24885  0.24892  0.24896  0.24899  0.24902  0.24904

  * THERMODYNAMIC PROPERTIES FITTED TO 20000.K

 NOTE. WEIGHT FRACTION OF FUEL IN TOTAL FUELS AND OF OXIDANT IN TOTAL OXIDANTS









         THERMODYNAMIC EQUILIBRIUM COMBUSTION PROPERTIES AT ASSIGNED

                                   PRESSURES

 CASE = RATTWORKS      

             REACTANT                    WT FRACTION      ENERGY      TEMP
                                          (SEE NOTE)     KJ/KG-MOL      K  
 OXIDANT     N2O                          1.0000000     81600.000    298.150
 FUEL        C3H6(L),propyle              1.0000000     -2704.000    225.460

 O/F=   37.50000  %FUEL=  2.597403  R,EQ.RATIO= 0.251025  PHI,EQ.RATIO= 0.251025

 THERMODYNAMIC PROPERTIES

 P, BAR            20.000   22.500   25.000   27.500   30.000   32.500   35.000   37.500
 T, K             2589.88  2591.73  2593.34  2594.74  2595.99  2597.11  2598.12  2599.04
 RHO, KG/CU M    2.7116 0 3.0488 0 3.3859 0 3.7229 0 4.0598 0 4.3966 0 4.7333 0 5.0700 0
 H, KJ/KG         1804.18  1804.18  1804.18  1804.18  1804.18  1804.18  1804.18  1804.18
 U, KJ/KG         1066.60  1066.18  1065.82  1065.50  1065.22  1064.97  1064.74  1064.54
 G, KJ/KG        -20732.7 -20661.8 -20597.9 -20539.7 -20486.1 -20436.6 -20390.4 -20347.3
 S, KJ/(KG)(K)     8.7019   8.6683   8.6383   8.6112   8.5864   8.5637   8.5426   8.5229

 M, (1/n)          29.195   29.199   29.203   29.206   29.209   29.212   29.214   29.216
 MW, MOL WT        29.195   29.199   29.203   29.206   29.209   29.212   29.214   29.216
 (dLV/dLP)t      -1.00152 -1.00146 -1.00141 -1.00136 -1.00132 -1.00129 -1.00125 -1.00123
 (dLV/dLT)p        1.0382   1.0366   1.0352   1.0340   1.0330   1.0321   1.0312   1.0304
 Cp, KJ/(KG)(K)    1.7587   1.7476   1.7380   1.7296   1.7222   1.7156   1.7096   1.7042
 GAMMAs            1.2092   1.2101   1.2109   1.2116   1.2122   1.2128   1.2133   1.2137
 SON VEL,M/SEC      944.4    945.0    945.6    946.0    946.4    946.8    947.2    947.5

 MASS FRACTIONS

 *CO              0.00138  0.00131  0.00126  0.00121  0.00116  0.00113  0.00109  0.00106
 *CO2             0.07933  0.07943  0.07952  0.07960  0.07967  0.07973  0.07978  0.07983
 HNO2             0.00000  0.00000  0.00000  0.00000  0.00000  0.00001  0.00001  0.00001
 HO2              0.00003  0.00003  0.00004  0.00004  0.00004  0.00004  0.00004  0.00004
 *H2              0.00001  0.00001  0.00001  0.00001  0.00001  0.00001  0.00001  0.00001
 H2O              0.03098  0.03104  0.03109  0.03114  0.03118  0.03122  0.03125  0.03128
 *NO              0.02567  0.02575  0.02582  0.02588  0.02593  0.02598  0.02602  0.02606
 NO2              0.00015  0.00016  0.00017  0.00018  0.00018  0.00019  0.00020  0.00021
 *N2              0.60791  0.60787  0.60784  0.60781  0.60778  0.60776  0.60774  0.60771
 N2O              0.00001  0.00001  0.00001  0.00001  0.00001  0.00001  0.00001  0.00001
 *O               0.00130  0.00123  0.00118  0.00113  0.00109  0.00105  0.00102  0.00099
 *OH              0.00415  0.00406  0.00397  0.00390  0.00383  0.00377  0.00371  0.00366
 *O2              0.24906  0.24907  0.24908  0.24909  0.24910  0.24911  0.24912  0.24912

  * THERMODYNAMIC PROPERTIES FITTED TO 20000.K

 NOTE. WEIGHT FRACTION OF FUEL IN TOTAL FUELS AND OF OXIDANT IN TOTAL OXIDANTS









         THERMODYNAMIC EQUILIBRIUM COMBUSTION PROPERTIES AT ASSIGNED

                                   PRESSURES

 CASE = RATTWORKS      

             REACTANT                    WT FRACTION      ENERGY      TEMP
                                          (SEE NOTE)     KJ/KG-MOL      K  
 OXIDANT     N2O                          1.0000000     81600.000    298.150
 FUEL        C3H6(L),propyle              1.0000000     -2704.000    225.460

 O/F=   37.50000  %FUEL=  2.597403  R,EQ.RATIO= 0.251025  PHI,EQ.RATIO= 0.251025

 THERMODYNAMIC PROPERTIES

 P, BAR            40.000   42.500   45.000   47.500   50.000   55.000   60.000   65.000
 T, K             2599.89  2600.67  2601.39  2602.05  2602.68  2603.81  2604.82  2605.72
 RHO, KG/CU M    5.4066 0 5.7432 0 6.0797 0 6.4161 0 6.7526 0 7.4253 0 8.0978 0 8.7703 0
 H, KJ/KG         1804.18  1804.18  1804.18  1804.18  1804.18  1804.18  1804.18  1804.18
 U, KJ/KG         1064.35  1064.17  1064.01  1063.86  1063.72  1063.47  1063.24  1063.04
 G, KJ/KG        -20306.7 -20268.5 -20232.3 -20197.9 -20165.2 -20104.2 -20048.1 -19996.4
 S, KJ/(KG)(K)     8.5046   8.4873   8.4710   8.4557   8.4411   8.4140   8.3892   8.3664

 M, (1/n)          29.218   29.220   29.222   29.224   29.225   29.228   29.230   29.232
 MW, MOL WT        29.218   29.220   29.222   29.224   29.225   29.228   29.230   29.232
 (dLV/dLP)t      -1.00120 -1.00118 -1.00115 -1.00113 -1.00111 -1.00108 -1.00105 -1.00102
 (dLV/dLT)p        1.0297   1.0291   1.0285   1.0279   1.0274   1.0265   1.0257   1.0249
 Cp, KJ/(KG)(K)    1.6992   1.6947   1.6905   1.6866   1.6830   1.6764   1.6706   1.6654
 GAMMAs            1.2141   1.2145   1.2149   1.2152   1.2156   1.2161   1.2167   1.2171
 SON VEL,M/SEC      947.8    948.0    948.3    948.5    948.7    949.1    949.5    949.8

 MASS FRACTIONS

 *CO              0.00103  0.00100  0.00098  0.00096  0.00094  0.00090  0.00086  0.00083
 *CO2             0.07988  0.07992  0.07996  0.07999  0.08002  0.08008  0.08014  0.08018
 HNO2             0.00001  0.00001  0.00001  0.00001  0.00001  0.00001  0.00001  0.00001
 HO2              0.00004  0.00004  0.00004  0.00004  0.00004  0.00004  0.00005  0.00005
 *H2              0.00001  0.00001  0.00001  0.00001  0.00001  0.00001  0.00001  0.00001
 H2O              0.03131  0.03134  0.03136  0.03139  0.03141  0.03145  0.03149  0.03152
 *NO              0.02609  0.02613  0.02616  0.02619  0.02621  0.02626  0.02630  0.02634
 NO2              0.00021  0.00022  0.00023  0.00023  0.00024  0.00025  0.00026  0.00027
 *N2              0.60770  0.60768  0.60766  0.60765  0.60763  0.60760  0.60758  0.60756
 N2O              0.00001  0.00001  0.00001  0.00001  0.00001  0.00001  0.00001  0.00002
 *O               0.00096  0.00093  0.00091  0.00089  0.00087  0.00083  0.00080  0.00077
 *OH              0.00361  0.00357  0.00353  0.00349  0.00345  0.00338  0.00332  0.00326
 *O2              0.24913  0.24914  0.24914  0.24914  0.24915  0.24916  0.24916  0.24917

  * THERMODYNAMIC PROPERTIES FITTED TO 20000.K

 NOTE. WEIGHT FRACTION OF FUEL IN TOTAL FUELS AND OF OXIDANT IN TOTAL OXIDANTS









         THERMODYNAMIC EQUILIBRIUM COMBUSTION PROPERTIES AT ASSIGNED

                                   PRESSURES

 CASE = RATTWORKS      

             REACTANT                    WT FRACTION      ENERGY      TEMP
                                          (SEE NOTE)     KJ/KG-MOL      K  
 OXIDANT     N2O                          1.0000000     81600.000    298.150
 FUEL        C3H6(L),propyle              1.0000000     -2704.000    225.460

 O/F=   37.50000  %FUEL=  2.597403  R,EQ.RATIO= 0.251025  PHI,EQ.RATIO= 0.251025

 THERMODYNAMIC PROPERTIES

 P, BAR            70.000
 T, K             2606.53
 RHO, KG/CU M    9.4426 0
 H, KJ/KG         1804.18
 U, KJ/KG         1062.86
 G, KJ/KG        -19948.2
 S, KJ/(KG)(K)     8.3454

 M, (1/n)          29.234
 MW, MOL WT        29.234
 (dLV/dLP)t      -1.00100
 (dLV/dLT)p        1.0243
 Cp, KJ/(KG)(K)    1.6607
 GAMMAs            1.2175
 SON VEL,M/SEC      950.0

 MASS FRACTIONS

 *CO              0.00081
 *CO2             0.08023
 HNO2             0.00001
 HO2              0.00005
 *H2              0.00001
 H2O              0.03155
 *NO              0.02638
 NO2              0.00028
 *N2              0.60754
 N2O              0.00002
 *O               0.00075
 *OH              0.00321
 *O2              0.24917

  * THERMODYNAMIC PROPERTIES FITTED TO 20000.K

 NOTE. WEIGHT FRACTION OF FUEL IN TOTAL FUELS AND OF OXIDANT IN TOTAL OXIDANTS









         THERMODYNAMIC EQUILIBRIUM COMBUSTION PROPERTIES AT ASSIGNED

                                   PRESSURES

 CASE = RATTWORKS      

             REACTANT                    WT FRACTION      ENERGY      TEMP
                                          (SEE NOTE)     KJ/KG-MOL      K  
 OXIDANT     N2O                          1.0000000     81600.000    298.150
 FUEL        C3H6(L),propyle              1.0000000     -2704.000    225.460

 O/F=   50.00000  %FUEL=  1.960784  R,EQ.RATIO= 0.188269  PHI,EQ.RATIO= 0.188269

 THERMODYNAMIC PROPERTIES

 P, BAR            1.0000   2.5000   5.0000   7.5000   10.000   12.500   15.000   17.500
 T, K             2402.74  2419.89  2430.20  2435.30  2438.55  2440.87  2442.64  2444.06
 RHO, KG/CU M    1.4598-1 3.6284-1 7.2318-1 1.0829 0 1.4423 0 1.8015 0 2.1606 0 2.5195 0
 H, KJ/KG         1816.39  1816.39  1816.39  1816.39  1816.39  1816.39  1816.39  1816.39
 U, KJ/KG         1131.35  1127.38  1125.00  1123.83  1123.08  1122.55  1122.14  1121.81
 G, KJ/KG        -20811.8 -20341.5 -19956.5 -19721.4 -19550.6 -19416.1 -19304.9 -19210.1
 S, KJ/(KG)(K)     9.4176   9.1566   8.9593   8.8440   8.7622   8.6987   8.6469   8.6031

 M, (1/n)          29.163   29.202   29.225   29.237   29.244   29.249   29.253   29.257
 MW, MOL WT        29.163   29.202   29.225   29.237   29.244   29.249   29.253   29.257
 (dLV/dLP)t      -1.00215 -1.00156 -1.00122 -1.00106 -1.00095 -1.00088 -1.00083 -1.00079
 (dLV/dLT)p        1.0581   1.0422   1.0329   1.0284   1.0255   1.0235   1.0220   1.0208
 Cp, KJ/(KG)(K)    1.8880   1.7673   1.6973   1.6635   1.6423   1.6273   1.6159   1.6069
 GAMMAs            1.2004   1.2098   1.2159   1.2191   1.2212   1.2227   1.2238   1.2247
 SON VEL,M/SEC      906.8    913.0    916.9    918.9    920.1    921.1    921.8    922.3

 MASS FRACTIONS

 *CO              0.00161  0.00114  0.00086  0.00072  0.00064  0.00058  0.00053  0.00050
 *CO2             0.05899  0.05974  0.06017  0.06039  0.06052  0.06061  0.06068  0.06074
 *H               0.00001  0.00001  0.00000  0.00000  0.00000  0.00000  0.00000  0.00000
 HO2              0.00001  0.00001  0.00001  0.00002  0.00002  0.00002  0.00002  0.00002
 *H2              0.00002  0.00001  0.00001  0.00001  0.00001  0.00001  0.00001  0.00001
 H2O              0.02265  0.02308  0.02336  0.02352  0.02362  0.02369  0.02375  0.02380
 *NO              0.01952  0.02017  0.02057  0.02077  0.02089  0.02098  0.02105  0.02111
 NO2              0.00003  0.00005  0.00007  0.00009  0.00011  0.00012  0.00013  0.00014
 *N2              0.61488  0.61457  0.61438  0.61428  0.61421  0.61417  0.61413  0.61410
 N2O              0.00000  0.00000  0.00000  0.00000  0.00000  0.00001  0.00001  0.00001
 *O               0.00242  0.00167  0.00125  0.00105  0.00092  0.00084  0.00077  0.00072
 *OH              0.00432  0.00367  0.00321  0.00296  0.00279  0.00266  0.00256  0.00248
 *O2              0.27554  0.27588  0.27610  0.27620  0.27627  0.27631  0.27635  0.27638

  * THERMODYNAMIC PROPERTIES FITTED TO 20000.K

 NOTE. WEIGHT FRACTION OF FUEL IN TOTAL FUELS AND OF OXIDANT IN TOTAL OXIDANTS









         THERMODYNAMIC EQUILIBRIUM COMBUSTION PROPERTIES AT ASSIGNED

                                   PRESSURES

 CASE = RATTWORKS      

             REACTANT                    WT FRACTION      ENERGY      TEMP
                                          (SEE NOTE)     KJ/KG-MOL      K  
 OXIDANT     N2O                          1.0000000     81600.000    298.150
 FUEL        C3H6(L),propyle              1.0000000     -2704.000    225.460

 O/F=   50.00000  %FUEL=  1.960784  R,EQ.RATIO= 0.188269  PHI,EQ.RATIO= 0.188269

 THERMODYNAMIC PROPERTIES

 P, BAR            20.000   22.500   25.000   27.500   30.000   32.500   35.000   37.500
 T, K             2445.24  2446.23  2447.08  2447.83  2448.49  2449.08  2449.62  2450.10
 RHO, KG/CU M    2.8783 0 3.2371 0 3.5957 0 3.9543 0 4.3129 0 4.6714 0 5.0298 0 5.3882 0
 H, KJ/KG         1816.39  1816.39  1816.39  1816.39  1816.39  1816.39  1816.39  1816.39
 U, KJ/KG         1121.54  1121.32  1121.12  1120.95  1120.80  1120.66  1120.54  1120.43
 G, KJ/KG        -19127.4 -19054.1 -18988.1 -18928.2 -18873.3 -18822.6 -18775.5 -18731.6
 S, KJ/(KG)(K)     8.5652   8.5317   8.5018   8.4747   8.4500   8.4272   8.4062   8.3866

 M, (1/n)          29.259   29.262   29.264   29.266   29.267   29.268   29.270   29.271
 MW, MOL WT        29.259   29.262   29.264   29.266   29.267   29.268   29.270   29.271
 (dLV/dLP)t      -1.00075 -1.00072 -1.00070 -1.00067 -1.00066 -1.00064 -1.00062 -1.00061
 (dLV/dLT)p        1.0198   1.0189   1.0182   1.0176   1.0170   1.0165   1.0161   1.0157
 Cp, KJ/(KG)(K)    1.5994   1.5932   1.5878   1.5831   1.5790   1.5753   1.5720   1.5690
 GAMMAs            1.2255   1.2262   1.2267   1.2272   1.2277   1.2281   1.2284   1.2287
 SON VEL,M/SEC      922.8    923.2    923.5    923.8    924.1    924.3    924.6    924.7

 MASS FRACTIONS

 *CO              0.00047  0.00045  0.00043  0.00041  0.00039  0.00038  0.00037  0.00035
 *CO2             0.06078  0.06082  0.06085  0.06088  0.06091  0.06093  0.06095  0.06097
 HO2              0.00002  0.00002  0.00002  0.00002  0.00002  0.00002  0.00003  0.00003
 *H2              0.00001  0.00001  0.00000  0.00000  0.00000  0.00000  0.00000  0.00000
 H2O              0.02384  0.02388  0.02391  0.02394  0.02396  0.02398  0.02400  0.02402
 *NO              0.02115  0.02119  0.02123  0.02126  0.02128  0.02131  0.02133  0.02135
 NO2              0.00015  0.00016  0.00017  0.00018  0.00019  0.00019  0.00020  0.00021
 *N2              0.61408  0.61406  0.61404  0.61402  0.61401  0.61399  0.61398  0.61397
 N2O              0.00001  0.00001  0.00001  0.00001  0.00001  0.00001  0.00001  0.00001
 *O               0.00068  0.00064  0.00061  0.00058  0.00056  0.00054  0.00052  0.00051
 *OH              0.00241  0.00235  0.00229  0.00225  0.00220  0.00216  0.00213  0.00210
 *O2              0.27640  0.27642  0.27644  0.27645  0.27646  0.27647  0.27648  0.27649

  * THERMODYNAMIC PROPERTIES FITTED TO 20000.K

 NOTE. WEIGHT FRACTION OF FUEL IN TOTAL FUELS AND OF OXIDANT IN TOTAL OXIDANTS









         THERMODYNAMIC EQUILIBRIUM COMBUSTION PROPERTIES AT ASSIGNED

                                   PRESSURES

 CASE = RATTWORKS      

             REACTANT                    WT FRACTION      ENERGY      TEMP
                                          (SEE NOTE)     KJ/KG-MOL      K  
 OXIDANT     N2O                          1.0000000     81600.000    298.150
 FUEL        C3H6(L),propyle              1.0000000     -2704.000    225.460

 O/F=   50.00000  %FUEL=  1.960784  R,EQ.RATIO= 0.188269  PHI,EQ.RATIO= 0.188269

 THERMODYNAMIC PROPERTIES

 P, BAR            40.000   42.500   45.000   47.500   50.000   55.000   60.000   65.000
 T, K             2450.55  2450.96  2451.33  2451.68  2452.01  2452.60  2453.12  2453.59
 RHO, KG/CU M    5.7466 0 6.1050 0 6.4633 0 6.8216 0 7.1798 0 7.8963 0 8.6127 0 9.3290 0
 H, KJ/KG         1816.39  1816.39  1816.39  1816.39  1816.39  1816.39  1816.39  1816.39
 U, KJ/KG         1120.33  1120.24  1120.15  1120.07  1120.00  1119.87  1119.75  1119.64
 G, KJ/KG        -18690.4 -18651.6 -18614.9 -18580.2 -18547.2 -18485.7 -18429.4 -18377.5
 S, KJ/(KG)(K)     8.3682   8.3510   8.3348   8.3194   8.3049   8.2778   8.2531   8.2303

 M, (1/n)          29.272   29.273   29.274   29.275   29.275   29.277   29.278   29.279
 MW, MOL WT        29.272   29.273   29.274   29.275   29.275   29.277   29.278   29.279
 (dLV/dLP)t      -1.00060 -1.00059 -1.00058 -1.00057 -1.00056 -1.00054 -1.00053 -1.00052
 (dLV/dLT)p        1.0153   1.0150   1.0147   1.0144   1.0141   1.0136   1.0132   1.0128
 Cp, KJ/(KG)(K)    1.5662   1.5637   1.5614   1.5592   1.5572   1.5536   1.5504   1.5476
 GAMMAs            1.2290   1.2293   1.2296   1.2298   1.2300   1.2304   1.2308   1.2311
 SON VEL,M/SEC      924.9    925.1    925.2    925.4    925.5    925.8    926.0    926.1

 MASS FRACTIONS

 *CO              0.00034  0.00033  0.00033  0.00032  0.00031  0.00030  0.00028  0.00027
 *CO2             0.06098  0.06100  0.06101  0.06102  0.06103  0.06106  0.06107  0.06109
 HNO2             0.00000  0.00001  0.00001  0.00001  0.00001  0.00001  0.00001  0.00001
 HO2              0.00003  0.00003  0.00003  0.00003  0.00003  0.00003  0.00003  0.00003
 H2O              0.02404  0.02405  0.02407  0.02408  0.02409  0.02412  0.02414  0.02416
 *NO              0.02136  0.02138  0.02139  0.02141  0.02142  0.02144  0.02146  0.02148
 NO2              0.00021  0.00022  0.00023  0.00023  0.00024  0.00025  0.00026  0.00027
 *N2              0.61396  0.61395  0.61394  0.61393  0.61392  0.61391  0.61389  0.61388
 N2O              0.00001  0.00001  0.00001  0.00001  0.00001  0.00001  0.00001  0.00001
 *O               0.00049  0.00048  0.00046  0.00045  0.00044  0.00042  0.00041  0.00039
 *OH              0.00207  0.00204  0.00201  0.00199  0.00197  0.00192  0.00189  0.00185
 *O2              0.27650  0.27650  0.27651  0.27651  0.27652  0.27653  0.27653  0.27654

  * THERMODYNAMIC PROPERTIES FITTED TO 20000.K

 NOTE. WEIGHT FRACTION OF FUEL IN TOTAL FUELS AND OF OXIDANT IN TOTAL OXIDANTS









         THERMODYNAMIC EQUILIBRIUM COMBUSTION PROPERTIES AT ASSIGNED

                                   PRESSURES

 CASE = RATTWORKS      

             REACTANT                    WT FRACTION      ENERGY      TEMP
                                          (SEE NOTE)     KJ/KG-MOL      K  
 OXIDANT     N2O                          1.0000000     81600.000    298.150
 FUEL        C3H6(L),propyle              1.0000000     -2704.000    225.460

 O/F=   50.00000  %FUEL=  1.960784  R,EQ.RATIO= 0.188269  PHI,EQ.RATIO= 0.188269

 THERMODYNAMIC PROPERTIES

 P, BAR            70.000
 T, K             2454.01
 RHO, KG/CU M    1.0045 1
 H, KJ/KG         1816.39
 U, KJ/KG         1119.55
 G, KJ/KG        -18329.3
 S, KJ/(KG)(K)     8.2093

 M, (1/n)          29.280
 MW, MOL WT        29.280
 (dLV/dLP)t      -1.00051
 (dLV/dLT)p        1.0124
 Cp, KJ/(KG)(K)    1.5450
 GAMMAs            1.2314
 SON VEL,M/SEC      926.3

 MASS FRACTIONS

 *CO              0.00027
 *CO2             0.06110
 HNO2             0.00001
 HO2              0.00003
 H2O              0.02418
 *NO              0.02150
 NO2              0.00029
 *N2              0.61387
 N2O              0.00001
 *O               0.00038
 *OH              0.00182
 *O2              0.27654

  * THERMODYNAMIC PROPERTIES FITTED TO 20000.K

 NOTE. WEIGHT FRACTION OF FUEL IN TOTAL FUELS AND OF OXIDANT IN TOTAL OXIDANTS



