
 *******************************************************************************

         NASA-GLENN CHEMICAL EQUILIBRIUM PROGRAM CEA2, MAY 21, 2004
                   BY  BONNIE MCBRIDE AND SANFORD GORDON
      REFS: NASA RP-1311, PART I, 1994 AND NASA RP-1311, PART II, 1996

 *******************************************************************************



  
 !     USER MANUAL FOR CEA CAN BE FOUND HERE:
 !          https://www.grc.nasa.gov/www/CEAWeb/RP-1311-P2.pdf
 !
 !  MULESIM DATA:
 !     (a)  Combustion or assigned-enthalpy-and-pressure problem (hp).
 !     (b)  Fuels are 'C32H66(a)' or paraffin at 298.15 K. The oxidant is
 !          'N2O(L),298.15K' at 298.15 K. Feel free to add any additional fuels.
 !     (c)  Oxidant-to-fuel weight ratios from 0.5 to 30 are defined.  Weight
 !          fractions are fractions of fuel relative to total fuel and fractions
 !          of oxidant relative to total oxidant. Make sure to update the wtfrac
 !          value if you add more fuels.
 !     (d)  Assigned pressures range from 1-70 bar in steps of 5 (p(bar)=1,...).
 !     (e)  Mixture properties are to be printed in SI units (siunits).
 !     (f)  Reactant fractions are to be expressed in terms of mass (massf)
 !     (g)  The short output file format is used (short)
 !     (h)  I don't know why but this program is unbelievably finicky, be warned
  
 reac
        oxid N2O    	wtfrac=1     t(k)=298.15
        fuel C32H66(a)   wtfrac=0.6   t(k)=298.15
        fuel AL		wtfrac=0.4   t(k)=298.15
 prob   case=MuleSimData1   hp   p(bar)=1,2.5,5,7.5,10,12.5,15,17.5,20,22.5,25,27
 .5,30,32.5,35,37.5,40,42.5,45,47.5,50,55,60,65,70
        o/f=0.5,0.75,1,1.25,1.5,2,2.25,2.5,2.75,3,3.5,4,4.5,5,5.5,6,6.5,7,7.5,8,8
 .5,9,9.5,10,10.5,11,12,13,14,15,17.5,20,25,37.5,50
 output siunits   massf   short
  
 end

 15 CONVERGENCES FAILED TO ESTABLISH SET OF CONDENSED SPECIES (EQLBRM)

 CALCULATIONS STOPPED AFTER POINT  6(EQLBRM)

 15 CONVERGENCES FAILED TO ESTABLISH SET OF CONDENSED SPECIES (EQLBRM)

 CALCULATIONS STOPPED AFTER POINT  6(EQLBRM)

 15 CONVERGENCES FAILED TO ESTABLISH SET OF CONDENSED SPECIES (EQLBRM)

 CALCULATIONS STOPPED AFTER POINT  6(EQLBRM)




         THERMODYNAMIC EQUILIBRIUM COMBUSTION PROPERTIES AT ASSIGNED

                                   PRESSURES

 CASE = MuleSimData1   

             REACTANT                    WT FRACTION      ENERGY      TEMP
                                          (SEE NOTE)     KJ/KG-MOL      K  
 OXIDANT     N2O                          1.0000000     81600.000    298.150
 FUEL        C32H66(a)                    0.6000000   -967800.000    298.150
 FUEL        AL                           0.4000000    330000.000    298.150

 O/F=    0.50000  %FUEL= 66.666667  R,EQ.RATIO=13.320229  PHI,EQ.RATIO=13.320229

 THERMODYNAMIC PROPERTIES

 P, BAR            1.0000   2.5000   5.0000   7.5000   10.000   12.500   22.500   25.000
 T, K             2438.49  2530.67  2601.27  2642.50  2671.56  2693.92  2700.28  2709.11
 RHO, KG/CU M    1.1148-1 2.7287-1 5.3778-1 8.0021-1 1.0612 0 1.3212 0 2.4495 0 2.7182 0
 H, KJ/KG         3020.88  3020.88  3020.88  3020.88  3020.88  3020.88  3020.88  3020.88
 U, KJ/KG         2123.82  2104.70  2091.12  2083.63  2078.54  2074.75  2102.34  2101.16
 G, KJ/KG        -25561.0 -25795.1 -25950.4 -26028.0 -26075.7 -26107.7 -25627.9 -25624.6
 S, KJ/(KG)(K)    11.7211  11.3867  11.1374  10.9930  10.8912  10.8127  10.6096  10.5738

 M, (1/n)          22.601   22.966   23.262   23.442   23.572   23.674   24.443   24.491
 MW, MOL WT        14.210   14.356   14.482   14.562   14.621   14.669   14.729   14.748
 (dLV/dLP)t      -1.13968 -1.11778 -1.10098 -1.09123 -1.08443 -1.07925 -1.04306 -1.04101
 (dLV/dLT)p        4.0149   3.4841   3.0976   2.8796   2.7292   2.6153   1.7671   1.7263
 Cp, KJ/(KG)(K)   27.2202  22.4068  19.1407  17.3784  16.1941  15.3134   8.3133   8.0554
 GAMMAs            1.0848   1.0850   1.0848   1.0846   1.0844   1.0842   1.0925   1.0924
 SON VEL,M/SEC      986.5    997.0   1004.3   1008.2   1010.9   1012.8   1001.8   1002.3

 MASS FRACTIONS

 *AL              0.06548  0.05144  0.04110  0.03534  0.03143  0.02852  0.01305  0.01212
 ALC2             0.00004  0.00006  0.00008  0.00008  0.00009  0.00009  0.00004  0.00004
 ALH              0.01161  0.01248  0.01271  0.01263  0.01246  0.01227  0.00760  0.00736
 ALH2             0.00001  0.00002  0.00003  0.00004  0.00005  0.00005  0.00004  0.00004
 ALH3             0.00000  0.00000  0.00001  0.00001  0.00001  0.00002  0.00002  0.00002
 ALN              0.00000  0.00000  0.00001  0.00001  0.00001  0.00001  0.00000  0.00000
 *ALO             0.00000  0.00000  0.00000  0.00000  0.00001  0.00001  0.00000  0.00001
 ALOH             0.00040  0.00062  0.00085  0.00101  0.00115  0.00126  0.00142  0.00147
 AL2              0.00038  0.00045  0.00047  0.00047  0.00046  0.00045  0.00017  0.00016
 AL2C2            0.00395  0.00496  0.00547  0.00559  0.00558  0.00551  0.00211  0.00199
 AL2O             0.01800  0.02086  0.02256  0.02324  0.02355  0.02368  0.01616  0.01567
 CH2              0.00000  0.00000  0.00000  0.00000  0.00000  0.00000  0.00000  0.00001
 CH3              0.00002  0.00004  0.00007  0.00009  0.00011  0.00013  0.00018  0.00019
 CH4              0.00005  0.00011  0.00019  0.00027  0.00034  0.00042  0.00078  0.00085
 *CN              0.00002  0.00003  0.00004  0.00004  0.00004  0.00004  0.00003  0.00003
 *CO              0.20467  0.20338  0.20255  0.20216  0.20194  0.20181  0.20469  0.20486
 C2H              0.00001  0.00002  0.00002  0.00003  0.00003  0.00003  0.00003  0.00003
 C2H2,acetylene   0.00609  0.00897  0.01181  0.01377  0.01529  0.01654  0.01700  0.01752
 C2H2,vinylidene  0.00000  0.00001  0.00001  0.00002  0.00002  0.00002  0.00002  0.00003
 CH2CO,ketene     0.00000  0.00000  0.00000  0.00000  0.00000  0.00000  0.00001  0.00001
 C2H3,vinyl       0.00000  0.00000  0.00000  0.00001  0.00001  0.00001  0.00001  0.00001
 CH3CN            0.00000  0.00000  0.00001  0.00001  0.00001  0.00002  0.00003  0.00003
 C2H4             0.00000  0.00001  0.00002  0.00003  0.00004  0.00006  0.00011  0.00012
 C2N2             0.00001  0.00002  0.00003  0.00003  0.00003  0.00004  0.00003  0.00003
 C3H3,2-propynl   0.00000  0.00001  0.00002  0.00003  0.00004  0.00005  0.00007  0.00008
 C3H4,allene      0.00000  0.00000  0.00000  0.00000  0.00000  0.00000  0.00001  0.00001
 C3H4,propyne     0.00000  0.00000  0.00000  0.00000  0.00000  0.00001  0.00001  0.00001
 C4H2,butadiyne   0.00004  0.00009  0.00015  0.00021  0.00026  0.00030  0.00032  0.00034
 C6H2             0.00000  0.00000  0.00000  0.00000  0.00000  0.00000  0.00000  0.00001
 *H               0.00068  0.00064  0.00060  0.00058  0.00056  0.00054  0.00041  0.00040
 HCN              0.01907  0.02308  0.02629  0.02820  0.02954  0.03056  0.02857  0.02889
 HCO              0.00000  0.00000  0.00000  0.00000  0.00000  0.00000  0.00001  0.00001
 HNC              0.00188  0.00254  0.00314  0.00352  0.00380  0.00402  0.00379  0.00386
 *H2              0.05664  0.05622  0.05585  0.05560  0.05542  0.05527  0.05550  0.05543
 H2O              0.00000  0.00000  0.00001  0.00001  0.00001  0.00002  0.00003  0.00003
 NH3              0.00000  0.00000  0.00001  0.00001  0.00001  0.00001  0.00002  0.00002
 *N2              0.11163  0.10397  0.09769  0.09384  0.09104  0.08885  0.07529  0.07425
 ALN(L)           0.26236  0.27766  0.29023  0.29800  0.30370  0.30822  0.35126  0.35371
 C(gr)            0.23692  0.23229  0.22797  0.22511  0.22292  0.22114  0.22115  0.22034

  * THERMODYNAMIC PROPERTIES FITTED TO 20000.K

 NOTE. WEIGHT FRACTION OF FUEL IN TOTAL FUELS AND OF OXIDANT IN TOTAL OXIDANTS









         THERMODYNAMIC EQUILIBRIUM COMBUSTION PROPERTIES AT ASSIGNED

                                   PRESSURES

 CASE = MuleSimData1   

             REACTANT                    WT FRACTION      ENERGY      TEMP
                                          (SEE NOTE)     KJ/KG-MOL      K  
 OXIDANT     N2O                          1.0000000     81600.000    298.150
 FUEL        C32H66(a)                    0.6000000   -967800.000    298.150
 FUEL        AL                           0.4000000    330000.000    298.150

 O/F=    0.50000  %FUEL= 66.666667  R,EQ.RATIO=13.320229  PHI,EQ.RATIO=13.320229

 THERMODYNAMIC PROPERTIES

 P, BAR            27.500   30.000   32.500   35.000   37.500   40.000   42.500   45.000
 T, K             2716.93  2723.92  2730.23  2735.95  2741.17  2745.97  2750.40  2754.50
 RHO, KG/CU M    2.9868 0 3.2552 0 3.5234 0 3.7916 0 4.0598 0 4.3278 0 4.5958 0 4.8638 0
 H, KJ/KG         3020.88  3020.88  3020.88  3020.88  3020.88  3020.88  3020.88  3020.88
 U, KJ/KG         2100.15  2099.26  2098.49  2097.79  2097.18  2096.62  2096.13  2095.68
 G, KJ/KG        -25619.5 -25613.0 -25605.3 -25596.9 -25587.8 -25578.2 -25568.2 -25557.9
 S, KJ/(KG)(K)    10.5414  10.5120  10.4849  10.4599  10.4366  10.4149  10.3945  10.3753

 M, (1/n)          24.535   24.574   24.610   24.644   24.674   24.703   24.729   24.754
 MW, MOL WT        14.765   14.782   14.796   14.810   14.823   14.835   14.846   14.857
 (dLV/dLP)t      -1.03922 -1.03763 -1.03621 -1.03494 -1.03380 -1.03276 -1.03181 -1.03095
 (dLV/dLT)p        1.6904   1.6585   1.6299   1.6041   1.5807   1.5593   1.5397   1.5216
 Cp, KJ/(KG)(K)    7.8300   7.6307   7.4530   7.2932   7.1487   7.0171   6.8967   6.7861
 GAMMAs            1.0922   1.0921   1.0920   1.0918   1.0917   1.0915   1.0914   1.0913
 SON VEL,M/SEC     1002.8   1003.2   1003.6   1003.9   1004.2   1004.4   1004.6   1004.8

 MASS FRACTIONS

 *AL              0.01131  0.01061  0.00998  0.00942  0.00892  0.00847  0.00806  0.00768
 ALC2             0.00004  0.00004  0.00004  0.00004  0.00004  0.00004  0.00003  0.00003
 ALH              0.00713  0.00692  0.00672  0.00654  0.00636  0.00620  0.00604  0.00590
 ALH2             0.00005  0.00005  0.00005  0.00005  0.00005  0.00005  0.00005  0.00005
 ALH3             0.00002  0.00002  0.00002  0.00002  0.00002  0.00002  0.00003  0.00003
 *ALO             0.00001  0.00001  0.00001  0.00001  0.00001  0.00001  0.00001  0.00001
 ALOH             0.00150  0.00154  0.00157  0.00160  0.00163  0.00166  0.00168  0.00171
 AL2              0.00015  0.00014  0.00013  0.00013  0.00012  0.00011  0.00011  0.00010
 AL2C2            0.00189  0.00178  0.00169  0.00161  0.00153  0.00146  0.00139  0.00133
 AL2O             0.01521  0.01478  0.01438  0.01401  0.01365  0.01332  0.01301  0.01271
 CH2              0.00001  0.00001  0.00001  0.00001  0.00001  0.00001  0.00001  0.00001
 CH3              0.00020  0.00022  0.00023  0.00024  0.00025  0.00026  0.00027  0.00028
 CH4              0.00093  0.00100  0.00108  0.00115  0.00122  0.00130  0.00137  0.00144
 *CN              0.00003  0.00003  0.00003  0.00003  0.00003  0.00003  0.00003  0.00003
 *CO              0.20501  0.20515  0.20529  0.20541  0.20553  0.20564  0.20574  0.20584
 *CO2             0.00000  0.00000  0.00000  0.00000  0.00000  0.00000  0.00001  0.00001
 C2H              0.00003  0.00003  0.00003  0.00003  0.00003  0.00003  0.00003  0.00003
 C2H2,acetylene   0.01800  0.01843  0.01883  0.01919  0.01953  0.01984  0.02014  0.02041
 C2H2,vinylidene  0.00003  0.00003  0.00003  0.00003  0.00003  0.00003  0.00003  0.00003
 CH2CO,ketene     0.00001  0.00001  0.00001  0.00001  0.00001  0.00001  0.00001  0.00001
 C2H3,vinyl       0.00002  0.00002  0.00002  0.00002  0.00002  0.00002  0.00002  0.00002
 CH3CN            0.00003  0.00004  0.00004  0.00004  0.00005  0.00005  0.00005  0.00006
 C2H4             0.00013  0.00014  0.00016  0.00017  0.00018  0.00019  0.00021  0.00022
 C2N2             0.00003  0.00004  0.00004  0.00004  0.00004  0.00004  0.00004  0.00004
 C3H3,2-propynl   0.00009  0.00009  0.00010  0.00011  0.00012  0.00012  0.00013  0.00013
 C3H4,allene      0.00001  0.00001  0.00001  0.00001  0.00001  0.00001  0.00001  0.00001
 C3H4,propyne     0.00002  0.00002  0.00002  0.00002  0.00002  0.00002  0.00003  0.00003
 C4H2,butadiyne   0.00036  0.00038  0.00039  0.00041  0.00043  0.00044  0.00045  0.00047
 C6H2             0.00001  0.00001  0.00001  0.00001  0.00001  0.00001  0.00001  0.00001
 *H               0.00039  0.00038  0.00038  0.00037  0.00036  0.00036  0.00035  0.00035
 HCN              0.02916  0.02940  0.02962  0.02981  0.02999  0.03015  0.03029  0.03042
 HCO              0.00001  0.00001  0.00001  0.00001  0.00001  0.00001  0.00001  0.00001
 HNC              0.00393  0.00399  0.00405  0.00410  0.00414  0.00418  0.00422  0.00426
 *H2              0.05537  0.05531  0.05526  0.05521  0.05516  0.05512  0.05507  0.05503
 H2O              0.00004  0.00004  0.00004  0.00004  0.00005  0.00005  0.00005  0.00006
 NH3              0.00002  0.00002  0.00003  0.00003  0.00003  0.00003  0.00003  0.00004
 *N2              0.07332  0.07249  0.07174  0.07105  0.07042  0.06985  0.06931  0.06882
 ALN(L)           0.35590  0.35787  0.35965  0.36128  0.36278  0.36415  0.36543  0.36661
 C(gr)            0.21961  0.21893  0.21831  0.21774  0.21720  0.21670  0.21622  0.21578

  * THERMODYNAMIC PROPERTIES FITTED TO 20000.K

 NOTE. WEIGHT FRACTION OF FUEL IN TOTAL FUELS AND OF OXIDANT IN TOTAL OXIDANTS









         THERMODYNAMIC EQUILIBRIUM COMBUSTION PROPERTIES AT ASSIGNED

                                   PRESSURES

 CASE = MuleSimData1   

             REACTANT                    WT FRACTION      ENERGY      TEMP
                                          (SEE NOTE)     KJ/KG-MOL      K  
 OXIDANT     N2O                          1.0000000     81600.000    298.150
 FUEL        C32H66(a)                    0.6000000   -967800.000    298.150
 FUEL        AL                           0.4000000    330000.000    298.150

 O/F=    0.50000  %FUEL= 66.666667  R,EQ.RATIO=13.320229  PHI,EQ.RATIO=13.320229

 THERMODYNAMIC PROPERTIES

 P, BAR            47.500   50.000   55.000   60.000   65.000   70.000
 T, K             2758.31  2761.87  2768.32  2774.03  2779.13  2783.72
 RHO, KG/CU M    5.1318 0 5.3997 0 5.9355 0 6.4713 0 7.0071 0 7.5430 0
 H, KJ/KG         3020.88  3020.88  3020.88  3020.88  3020.88  3020.88
 U, KJ/KG         2095.27  2094.90  2094.25  2093.71  2093.25  2092.86
 G, KJ/KG        -25547.4 -25536.7 -25515.0 -25493.1 -25471.2 -25449.5
 S, KJ/(KG)(K)    10.3572  10.3399  10.3080  10.2789  10.2522  10.2275

 M, (1/n)          24.777   24.799   24.840   24.876   24.910   24.941
 MW, MOL WT        14.867   14.877   14.895   14.912   14.928   14.942
 (dLV/dLP)t      -1.03016 -1.02943 -1.02814 -1.02703 -1.02608 -1.02526
 (dLV/dLT)p        1.5049   1.4894   1.4615   1.4371   1.4155   1.3964
 Cp, KJ/(KG)(K)    6.6840   6.5895   6.4199   6.2718   6.1412   6.0252
 GAMMAs            1.0912   1.0910   1.0908   1.0905   1.0903   1.0901
 SON VEL,M/SEC     1005.0   1005.1   1005.4   1005.5   1005.7   1005.8

 MASS FRACTIONS

 *AL              0.00733  0.00702  0.00645  0.00597  0.00554  0.00517
 ALC2             0.00003  0.00003  0.00003  0.00003  0.00003  0.00003
 ALH              0.00576  0.00563  0.00538  0.00516  0.00496  0.00477
 ALH2             0.00005  0.00005  0.00005  0.00005  0.00005  0.00005
 ALH3             0.00003  0.00003  0.00003  0.00003  0.00003  0.00003
 *ALO             0.00001  0.00001  0.00001  0.00001  0.00001  0.00001
 ALOH             0.00173  0.00175  0.00179  0.00182  0.00185  0.00188
 AL2              0.00010  0.00010  0.00009  0.00008  0.00007  0.00007
 AL2C2            0.00127  0.00122  0.00112  0.00104  0.00096  0.00089
 AL2O             0.01243  0.01216  0.01166  0.01120  0.01078  0.01040
 CH2              0.00001  0.00001  0.00001  0.00001  0.00001  0.00001
 CH3              0.00029  0.00030  0.00032  0.00034  0.00035  0.00037
 CH4              0.00151  0.00159  0.00173  0.00187  0.00201  0.00215
 *CN              0.00003  0.00003  0.00003  0.00003  0.00003  0.00003
 *CO              0.20593  0.20602  0.20619  0.20634  0.20647  0.20660
 *CO2             0.00001  0.00001  0.00001  0.00001  0.00001  0.00001
 C2H              0.00003  0.00003  0.00003  0.00003  0.00003  0.00003
 C2H2,acetylene   0.02066  0.02090  0.02134  0.02173  0.02209  0.02241
 C2H2,vinylidene  0.00004  0.00004  0.00004  0.00004  0.00004  0.00004
 CH2CO,ketene     0.00002  0.00002  0.00002  0.00002  0.00002  0.00002
 C2H3,vinyl       0.00002  0.00003  0.00003  0.00003  0.00003  0.00003
 CH3CN            0.00006  0.00006  0.00007  0.00008  0.00008  0.00009
 C2H4             0.00023  0.00024  0.00027  0.00029  0.00032  0.00034
 C2N2             0.00004  0.00004  0.00004  0.00004  0.00004  0.00004
 C3H3,2-propynl   0.00014  0.00015  0.00016  0.00017  0.00018  0.00019
 C3H4,allene      0.00001  0.00001  0.00002  0.00002  0.00002  0.00002
 C3H4,propyne     0.00003  0.00003  0.00003  0.00004  0.00004  0.00005
 C4H2,butadiyne   0.00048  0.00049  0.00051  0.00053  0.00055  0.00057
 C6H2             0.00001  0.00001  0.00001  0.00001  0.00001  0.00001
 *H               0.00034  0.00034  0.00033  0.00032  0.00031  0.00031
 HCN              0.03054  0.03065  0.03085  0.03103  0.03118  0.03131
 HCO              0.00001  0.00001  0.00001  0.00001  0.00001  0.00001
 HNC              0.00429  0.00432  0.00437  0.00442  0.00447  0.00450
 *H2              0.05499  0.05495  0.05488  0.05481  0.05474  0.05467
 H2O              0.00006  0.00006  0.00007  0.00007  0.00008  0.00008
 NH3              0.00004  0.00004  0.00004  0.00005  0.00005  0.00005
 *N2              0.06836  0.06793  0.06715  0.06646  0.06585  0.06529
 ALN(L)           0.36772  0.36875  0.37063  0.37230  0.37379  0.37513
 C(gr)            0.21535  0.21495  0.21420  0.21352  0.21289  0.21231

  * THERMODYNAMIC PROPERTIES FITTED TO 20000.K

 NOTE. WEIGHT FRACTION OF FUEL IN TOTAL FUELS AND OF OXIDANT IN TOTAL OXIDANTS






 15 CONVERGENCES FAILED TO ESTABLISH SET OF CONDENSED SPECIES (EQLBRM)

 CALCULATIONS STOPPED AFTER POINT  5(EQLBRM)

 15 CONVERGENCES FAILED TO ESTABLISH SET OF CONDENSED SPECIES (EQLBRM)

 CALCULATIONS STOPPED AFTER POINT  5(EQLBRM)




         THERMODYNAMIC EQUILIBRIUM COMBUSTION PROPERTIES AT ASSIGNED

                                   PRESSURES

 CASE = MuleSimData1   

             REACTANT                    WT FRACTION      ENERGY      TEMP
                                          (SEE NOTE)     KJ/KG-MOL      K  
 OXIDANT     N2O                          1.0000000     81600.000    298.150
 FUEL        C32H66(a)                    0.6000000   -967800.000    298.150
 FUEL        AL                           0.4000000    330000.000    298.150

 O/F=    0.75000  %FUEL= 57.142857  R,EQ.RATIO= 8.880153  PHI,EQ.RATIO= 8.880153

 THERMODYNAMIC PROPERTIES

 P, BAR            1.0000   2.5000   5.0000   7.5000   10.000   17.500   20.000   22.500
 T, K             2455.34  2550.15  2623.00  2665.63  2695.72  2714.27  2726.58  2737.18
 RHO, KG/CU M    1.0901-1 2.6645-1 5.2453-1 7.7998-1 1.0339 0 1.8485 0 2.1084 0 2.3680 0
 H, KJ/KG         2854.18  2854.18  2854.18  2854.18  2854.18  2854.18  2854.18  2854.18
 U, KJ/KG         1936.84  1915.92  1900.94  1892.62  1886.95  1907.49  1905.61  1904.02
 G, KJ/KG        -26191.7 -26446.8 -26619.0 -26706.7 -26761.4 -26429.0 -26435.1 -26436.9
 S, KJ/(KG)(K)    11.8297  11.4899  11.2364  11.0896  10.9861  10.7886  10.7421  10.7012

 M, (1/n)          22.255   22.599   22.879   23.049   23.173   23.839   23.899   23.952
 MW, MOL WT        15.767   15.954   16.118   16.221   16.299   16.399   16.432   16.461
 (dLV/dLP)t      -1.14345 -1.12054 -1.10282 -1.09248 -1.08522 -1.04893 -1.04583 -1.04319
 (dLV/dLT)p        4.0669   3.5138   3.1092   2.8801   2.7216   1.8656   1.8066   1.7561
 Cp, KJ/(KG)(K)   27.5866  22.5360  19.0949  17.2328  15.9793   8.7785   8.4011   8.0818
 GAMMAs            1.0876   1.0882   1.0883   1.0883   1.0883   1.0981   1.0981   1.0980
 SON VEL,M/SEC      998.8   1010.4   1018.6   1023.0   1026.0   1019.6   1020.6   1021.4

 MASS FRACTIONS

 *AL              0.06394  0.05040  0.04034  0.03469  0.03085  0.01584  0.01450  0.01337
 ALC2             0.00005  0.00007  0.00009  0.00009  0.00010  0.00006  0.00005  0.00005
 ALH              0.01008  0.01084  0.01103  0.01094  0.01078  0.00725  0.00698  0.00673
 ALH2             0.00001  0.00002  0.00003  0.00003  0.00004  0.00003  0.00003  0.00004
 ALH3             0.00000  0.00000  0.00001  0.00001  0.00001  0.00001  0.00001  0.00001
 ALN              0.00000  0.00001  0.00001  0.00001  0.00001  0.00001  0.00001  0.00001
 *ALO             0.00000  0.00000  0.00000  0.00001  0.00001  0.00001  0.00001  0.00001
 ALOH             0.00040  0.00061  0.00084  0.00099  0.00112  0.00124  0.00129  0.00133
 AL2              0.00034  0.00040  0.00042  0.00042  0.00041  0.00018  0.00017  0.00016
 AL2C2            0.00355  0.00448  0.00495  0.00505  0.00503  0.00230  0.00215  0.00202
 AL2O             0.01713  0.01967  0.02107  0.02156  0.02173  0.01522  0.01462  0.01408
 CH2              0.00000  0.00000  0.00000  0.00000  0.00000  0.00000  0.00000  0.00001
 CH3              0.00002  0.00003  0.00005  0.00007  0.00009  0.00012  0.00014  0.00015
 CH4              0.00003  0.00007  0.00013  0.00018  0.00023  0.00041  0.00046  0.00051
 *CN              0.00003  0.00005  0.00006  0.00006  0.00007  0.00005  0.00005  0.00005
 *CO              0.26562  0.26447  0.26376  0.26345  0.26330  0.26580  0.26601  0.26619
 C2H              0.00001  0.00002  0.00003  0.00003  0.00003  0.00003  0.00003  0.00003
 C2H2,acetylene   0.00557  0.00823  0.01086  0.01268  0.01410  0.01510  0.01574  0.01631
 C2H2,vinylidene  0.00000  0.00001  0.00001  0.00002  0.00002  0.00002  0.00002  0.00003
 CH2CO,ketene     0.00000  0.00000  0.00000  0.00000  0.00000  0.00001  0.00001  0.00001
 C2H3,vinyl       0.00000  0.00000  0.00000  0.00000  0.00001  0.00001  0.00001  0.00001
 CH3CN            0.00000  0.00000  0.00001  0.00001  0.00001  0.00002  0.00003  0.00003
 C2H4             0.00000  0.00001  0.00002  0.00002  0.00003  0.00006  0.00007  0.00008
 C2N2             0.00002  0.00003  0.00005  0.00006  0.00007  0.00007  0.00007  0.00008
 C3H3,2-propynl   0.00000  0.00001  0.00002  0.00003  0.00004  0.00005  0.00006  0.00007
 C3H4,propyne     0.00000  0.00000  0.00000  0.00000  0.00000  0.00001  0.00001  0.00001
 C4H2,butadiyne   0.00004  0.00009  0.00015  0.00021  0.00026  0.00030  0.00033  0.00035
 C6H2             0.00000  0.00000  0.00000  0.00000  0.00000  0.00000  0.00001  0.00001
 *H               0.00068  0.00064  0.00061  0.00058  0.00056  0.00045  0.00044  0.00043
 HCN              0.02377  0.02918  0.03367  0.03640  0.03836  0.03828  0.03902  0.03967
 HCO              0.00000  0.00000  0.00000  0.00000  0.00000  0.00001  0.00001  0.00001
 HNC              0.00240  0.00329  0.00412  0.00466  0.00506  0.00515  0.00531  0.00546
 *H2              0.04811  0.04766  0.04725  0.04699  0.04679  0.04689  0.04680  0.04673
 H2O              0.00000  0.00000  0.00001  0.00001  0.00001  0.00002  0.00003  0.00003
 NH3              0.00000  0.00000  0.00001  0.00001  0.00001  0.00002  0.00002  0.00002
 *N2              0.18723  0.17875  0.17167  0.16728  0.16407  0.15083  0.14924  0.14786
 ALN(L)           0.21056  0.22576  0.23837  0.24622  0.25200  0.29074  0.29400  0.29683
 C(gr)            0.16036  0.15518  0.15037  0.14719  0.14476  0.14338  0.14224  0.14123

  * THERMODYNAMIC PROPERTIES FITTED TO 20000.K

 NOTE. WEIGHT FRACTION OF FUEL IN TOTAL FUELS AND OF OXIDANT IN TOTAL OXIDANTS









         THERMODYNAMIC EQUILIBRIUM COMBUSTION PROPERTIES AT ASSIGNED

                                   PRESSURES

 CASE = MuleSimData1   

             REACTANT                    WT FRACTION      ENERGY      TEMP
                                          (SEE NOTE)     KJ/KG-MOL      K  
 OXIDANT     N2O                          1.0000000     81600.000    298.150
 FUEL        C32H66(a)                    0.6000000   -967800.000    298.150
 FUEL        AL                           0.4000000    330000.000    298.150

 O/F=    0.75000  %FUEL= 57.142857  R,EQ.RATIO= 8.880153  PHI,EQ.RATIO= 8.880153

 THERMODYNAMIC PROPERTIES

 P, BAR            25.000   27.500   30.000   32.500   35.000   37.500   40.000   42.500
 T, K             2746.44  2754.62  2761.92  2768.48  2774.43  2779.85  2784.82  2789.39
 RHO, KG/CU M    2.6274 0 2.8866 0 3.1456 0 3.4045 0 3.6632 0 3.9219 0 4.1805 0 4.4391 0
 H, KJ/KG         2854.18  2854.18  2854.18  2854.18  2854.18  2854.18  2854.18  2854.18
 U, KJ/KG         1902.67  1901.49  1900.46  1899.55  1898.74  1898.02  1897.37  1896.78
 G, KJ/KG        -26435.6 -26432.0 -26426.5 -26419.7 -26411.7 -26402.9 -26393.3 -26383.3
 S, KJ/(KG)(K)    10.6646  10.6316  10.6016  10.5740  10.5484  10.5247  10.5025  10.4817

 M, (1/n)          23.999   24.041   24.078   24.113   24.144   24.173   24.199   24.224
 MW, MOL WT        16.487   16.510   16.532   16.551   16.569   16.586   16.602   16.617
 (dLV/dLP)t      -1.04089 -1.03887 -1.03708 -1.03549 -1.03405 -1.03276 -1.03158 -1.03051
 (dLV/dLT)p        1.7123   1.6738   1.6397   1.6092   1.5817   1.5568   1.5341   1.5134
 Cp, KJ/(KG)(K)    7.8072   7.5678   7.3569   7.1693   7.0012   6.8495   6.7119   6.5864
 GAMMAs            1.0980   1.0979   1.0978   1.0978   1.0977   1.0976   1.0976   1.0975
 SON VEL,M/SEC     1022.1   1022.7   1023.2   1023.7   1024.1   1024.5   1024.8   1025.1

 MASS FRACTIONS

 *AL              0.01240  0.01156  0.01082  0.01017  0.00959  0.00906  0.00859  0.00816
 ALC2             0.00005  0.00005  0.00005  0.00005  0.00005  0.00004  0.00004  0.00004
 ALH              0.00651  0.00629  0.00610  0.00591  0.00574  0.00558  0.00542  0.00528
 ALH2             0.00004  0.00004  0.00004  0.00004  0.00004  0.00004  0.00004  0.00004
 ALH3             0.00001  0.00001  0.00001  0.00001  0.00002  0.00002  0.00002  0.00002
 ALN              0.00001  0.00001  0.00001  0.00001  0.00001  0.00001  0.00001  0.00001
 *ALO             0.00001  0.00001  0.00001  0.00001  0.00001  0.00001  0.00001  0.00001
 ALOH             0.00137  0.00140  0.00143  0.00146  0.00148  0.00150  0.00153  0.00155
 AL2              0.00015  0.00014  0.00013  0.00012  0.00012  0.00011  0.00010  0.00010
 AL2C2            0.00190  0.00179  0.00169  0.00160  0.00151  0.00143  0.00136  0.00130
 AL2O             0.01358  0.01312  0.01269  0.01230  0.01193  0.01159  0.01127  0.01097
 CH2              0.00001  0.00001  0.00001  0.00001  0.00001  0.00001  0.00001  0.00001
 CH3              0.00016  0.00017  0.00018  0.00019  0.00020  0.00021  0.00022  0.00022
 CH4              0.00056  0.00061  0.00066  0.00071  0.00076  0.00081  0.00086  0.00090
 *CN              0.00005  0.00005  0.00006  0.00006  0.00006  0.00005  0.00005  0.00005
 *CO              0.26636  0.26652  0.26666  0.26680  0.26692  0.26704  0.26715  0.26725
 *CO2             0.00000  0.00001  0.00001  0.00001  0.00001  0.00001  0.00001  0.00001
 C2H              0.00003  0.00004  0.00004  0.00004  0.00004  0.00004  0.00004  0.00004
 C2H2,acetylene   0.01683  0.01729  0.01771  0.01809  0.01844  0.01876  0.01906  0.01934
 C2H2,vinylidene  0.00003  0.00003  0.00003  0.00003  0.00003  0.00003  0.00004  0.00004
 CH2CO,ketene     0.00001  0.00001  0.00001  0.00001  0.00001  0.00001  0.00001  0.00002
 C2H3,vinyl       0.00001  0.00001  0.00002  0.00002  0.00002  0.00002  0.00002  0.00002
 CH3CN            0.00003  0.00004  0.00004  0.00005  0.00005  0.00005  0.00006  0.00006
 C2H4             0.00008  0.00009  0.00010  0.00011  0.00012  0.00013  0.00014  0.00015
 C2N2             0.00008  0.00008  0.00009  0.00009  0.00009  0.00009  0.00009  0.00010
 C3H3,2-propynl   0.00007  0.00008  0.00009  0.00009  0.00010  0.00011  0.00011  0.00012
 C3H4,allene      0.00000  0.00001  0.00001  0.00001  0.00001  0.00001  0.00001  0.00001
 C3H4,propyne     0.00001  0.00001  0.00001  0.00001  0.00002  0.00002  0.00002  0.00002
 C4H2,butadiyne   0.00037  0.00039  0.00041  0.00043  0.00045  0.00047  0.00048  0.00050
 C6H2             0.00001  0.00001  0.00001  0.00001  0.00001  0.00001  0.00001  0.00001
 *H               0.00042  0.00042  0.00041  0.00040  0.00039  0.00039  0.00038  0.00038
 HCN              0.04023  0.04072  0.04116  0.04156  0.04191  0.04224  0.04254  0.04281
 HCO              0.00001  0.00001  0.00001  0.00001  0.00001  0.00001  0.00001  0.00001
 HNC              0.00558  0.00570  0.00580  0.00589  0.00598  0.00605  0.00613  0.00619
 *H2              0.04666  0.04660  0.04654  0.04649  0.04644  0.04639  0.04635  0.04631
 H2O              0.00003  0.00004  0.00004  0.00004  0.00004  0.00005  0.00005  0.00005
 NH3              0.00002  0.00002  0.00003  0.00003  0.00003  0.00003  0.00003  0.00003
 *N2              0.14664  0.14556  0.14459  0.14372  0.14292  0.14219  0.14153  0.14091
 ALN(L)           0.29933  0.30156  0.30355  0.30536  0.30700  0.30851  0.30989  0.31117
 C(gr)            0.14032  0.13951  0.13876  0.13808  0.13745  0.13686  0.13632  0.13581

  * THERMODYNAMIC PROPERTIES FITTED TO 20000.K

 NOTE. WEIGHT FRACTION OF FUEL IN TOTAL FUELS AND OF OXIDANT IN TOTAL OXIDANTS









         THERMODYNAMIC EQUILIBRIUM COMBUSTION PROPERTIES AT ASSIGNED

                                   PRESSURES

 CASE = MuleSimData1   

             REACTANT                    WT FRACTION      ENERGY      TEMP
                                          (SEE NOTE)     KJ/KG-MOL      K  
 OXIDANT     N2O                          1.0000000     81600.000    298.150
 FUEL        C32H66(a)                    0.6000000   -967800.000    298.150
 FUEL        AL                           0.4000000    330000.000    298.150

 O/F=    0.75000  %FUEL= 57.142857  R,EQ.RATIO= 8.880153  PHI,EQ.RATIO= 8.880153

 THERMODYNAMIC PROPERTIES

 P, BAR            45.000   47.500   50.000   55.000   60.000   65.000   70.000
 T, K             2793.61  2797.53  2801.18  2807.77  2813.58  2818.74  2823.36
 RHO, KG/CU M    4.6976 0 4.9560 0 5.2144 0 5.7312 0 6.2478 0 6.7644 0 7.2810 0
 H, KJ/KG         2854.18  2854.18  2854.18  2854.18  2854.18  2854.18  2854.18
 U, KJ/KG         1896.24  1895.75  1895.30  1894.52  1893.85  1893.27  1892.78
 G, KJ/KG        -26372.8 -26361.9 -26350.8 -26328.0 -26304.7 -26281.3 -26257.8
 S, KJ/(KG)(K)    10.4621  10.4435  10.4260  10.3934  10.3636  10.3363  10.3111

 M, (1/n)          24.247   24.269   24.289   24.326   24.360   24.390   24.417
 MW, MOL WT        16.631   16.644   16.656   16.679   16.700   16.719   16.737
 (dLV/dLP)t      -1.02952 -1.02862 -1.02779 -1.02631 -1.02504 -1.02393 -1.02297
 (dLV/dLT)p        1.4943   1.4767   1.4604   1.4311   1.4057   1.3833   1.3634
 Cp, KJ/(KG)(K)    6.4714   6.3656   6.2679   6.0933   5.9417   5.8089   5.6915
 GAMMAs            1.0974   1.0974   1.0973   1.0972   1.0971   1.0969   1.0968
 SON VEL,M/SEC     1025.3   1025.6   1025.8   1026.1   1026.4   1026.7   1026.9

 MASS FRACTIONS

 *AL              0.00776  0.00741  0.00707  0.00649  0.00598  0.00554  0.00516
 ALC2             0.00004  0.00004  0.00004  0.00004  0.00004  0.00003  0.00003
 ALH              0.00515  0.00502  0.00489  0.00467  0.00446  0.00428  0.00410
 ALH2             0.00004  0.00004  0.00004  0.00004  0.00004  0.00004  0.00004
 ALH3             0.00002  0.00002  0.00002  0.00002  0.00002  0.00002  0.00002
 ALN              0.00001  0.00001  0.00001  0.00001  0.00001  0.00001  0.00000
 *ALO             0.00001  0.00001  0.00001  0.00001  0.00001  0.00001  0.00001
 ALOH             0.00156  0.00158  0.00160  0.00163  0.00165  0.00168  0.00170
 AL2              0.00009  0.00009  0.00009  0.00008  0.00007  0.00007  0.00006
 AL2C2            0.00123  0.00118  0.00112  0.00103  0.00094  0.00087  0.00081
 AL2O             0.01068  0.01041  0.01015  0.00968  0.00925  0.00887  0.00851
 CH2              0.00001  0.00001  0.00001  0.00001  0.00001  0.00001  0.00001
 CH3              0.00023  0.00024  0.00025  0.00026  0.00028  0.00029  0.00031
 CH4              0.00095  0.00100  0.00105  0.00114  0.00123  0.00132  0.00142
 *CN              0.00005  0.00005  0.00005  0.00005  0.00005  0.00005  0.00005
 *CO              0.26735  0.26744  0.26752  0.26768  0.26782  0.26795  0.26807
 *CO2             0.00001  0.00001  0.00001  0.00001  0.00001  0.00001  0.00001
 C2H              0.00004  0.00004  0.00004  0.00004  0.00004  0.00004  0.00004
 C2H2,acetylene   0.01960  0.01985  0.02007  0.02049  0.02086  0.02119  0.02149
 C2H2,vinylidene  0.00004  0.00004  0.00004  0.00004  0.00004  0.00004  0.00004
 CH2CO,ketene     0.00002  0.00002  0.00002  0.00002  0.00002  0.00002  0.00003
 C2H3,vinyl       0.00002  0.00002  0.00002  0.00003  0.00003  0.00003  0.00003
 CH3CN            0.00006  0.00007  0.00007  0.00008  0.00008  0.00009  0.00010
 C2H4             0.00015  0.00016  0.00017  0.00019  0.00021  0.00022  0.00024
 C2N2             0.00010  0.00010  0.00010  0.00010  0.00011  0.00011  0.00011
 C3H3,2-propynl   0.00012  0.00013  0.00014  0.00015  0.00016  0.00017  0.00018
 C3H4,allene      0.00001  0.00001  0.00001  0.00001  0.00001  0.00001  0.00002
 C3H4,propyne     0.00002  0.00002  0.00002  0.00003  0.00003  0.00003  0.00004
 C4H2,butadiyne   0.00051  0.00052  0.00054  0.00056  0.00058  0.00060  0.00062
 C6H2             0.00001  0.00001  0.00001  0.00001  0.00001  0.00001  0.00001
 *H               0.00037  0.00037  0.00036  0.00035  0.00034  0.00033  0.00033
 HCN              0.04306  0.04329  0.04351  0.04390  0.04424  0.04454  0.04480
 HCO              0.00001  0.00001  0.00001  0.00001  0.00001  0.00001  0.00001
 HNC              0.00625  0.00631  0.00636  0.00646  0.00655  0.00662  0.00669
 *H2              0.04627  0.04623  0.04619  0.04613  0.04606  0.04600  0.04595
 H2O              0.00005  0.00006  0.00006  0.00007  0.00007  0.00008  0.00008
 NH3              0.00004  0.00004  0.00004  0.00004  0.00005  0.00005  0.00005
 *N2              0.14034  0.13981  0.13932  0.13842  0.13763  0.13693  0.13630
 ALN(L)           0.31236  0.31346  0.31449  0.31635  0.31799  0.31946  0.32077
 C(gr)            0.13533  0.13488  0.13446  0.13368  0.13297  0.13233  0.13174

  * THERMODYNAMIC PROPERTIES FITTED TO 20000.K

 NOTE. WEIGHT FRACTION OF FUEL IN TOTAL FUELS AND OF OXIDANT IN TOTAL OXIDANTS






 15 CONVERGENCES FAILED TO ESTABLISH SET OF CONDENSED SPECIES (EQLBRM)

 CALCULATIONS STOPPED AFTER POINT  4(EQLBRM)




         THERMODYNAMIC EQUILIBRIUM COMBUSTION PROPERTIES AT ASSIGNED

                                   PRESSURES

 CASE = MuleSimData1   

             REACTANT                    WT FRACTION      ENERGY      TEMP
                                          (SEE NOTE)     KJ/KG-MOL      K  
 OXIDANT     N2O                          1.0000000     81600.000    298.150
 FUEL        C32H66(a)                    0.6000000   -967800.000    298.150
 FUEL        AL                           0.4000000    330000.000    298.150

 O/F=    1.00000  %FUEL= 50.000000  R,EQ.RATIO= 6.660115  PHI,EQ.RATIO= 6.660115

 THERMODYNAMIC PROPERTIES

 P, BAR            1.0000   2.5000   5.0000   7.5000   12.500   15.000   17.500   20.000
 T, K             2464.09  2560.46  2634.74  2678.31  2703.56  2722.14  2737.49  2750.48
 RHO, KG/CU M    1.0728-1 2.6191-1 5.1510-1 7.6552-1 1.2950 0 1.5489 0 1.8022 0 2.0550 0
 H, KJ/KG         2729.16  2729.16  2729.16  2729.16  2729.16  2729.16  2729.16  2729.16
 U, KJ/KG         1797.02  1774.63  1758.47  1749.43  1763.93  1760.70  1758.10  1755.94
 G, KJ/KG        -26587.7 -26853.2 -27034.5 -27128.0 -26909.3 -26936.1 -26953.5 -26964.2
 S, KJ/(KG)(K)    11.8976  11.5535  11.2966  11.1478  10.9627  10.8978  10.8430  10.7957

 M, (1/n)          21.979   22.303   22.568   22.730   23.288   23.370   23.439   23.498
 MW, MOL WT        17.159   17.381   17.576   17.700   17.828   17.884   17.931   17.972
 (dLV/dLP)t      -1.14329 -1.12058 -1.10294 -1.09260 -1.05955 -1.05490 -1.05107 -1.04783
 (dLV/dLT)p        4.0464   3.4981   3.0960   2.8678   2.0539   1.9656   1.8934   1.8327
 Cp, KJ/(KG)(K)   27.4299  22.3756  18.9245  17.0537   9.8706   9.2873   8.8169   8.4269
 GAMMAs            1.0899   1.0909   1.0913   1.0915   1.1026   1.1027   1.1027   1.1028
 SON VEL,M/SEC     1008.0   1020.4   1029.2   1034.1   1031.6   1033.4   1034.8   1036.0

 MASS FRACTIONS

 *AL              0.06343  0.05028  0.04045  0.03490  0.02077  0.01869  0.01701  0.01561
 ALC2             0.00005  0.00007  0.00009  0.00010  0.00007  0.00007  0.00007  0.00007
 ALH              0.00913  0.00985  0.01005  0.00999  0.00750  0.00721  0.00695  0.00671
 ALH2             0.00001  0.00001  0.00002  0.00003  0.00003  0.00003  0.00003  0.00003
 ALH3             0.00000  0.00000  0.00000  0.00001  0.00001  0.00001  0.00001  0.00001
 ALN              0.00000  0.00001  0.00001  0.00001  0.00001  0.00001  0.00001  0.00001
 *ALO             0.00000  0.00000  0.00001  0.00001  0.00001  0.00001  0.00001  0.00001
 ALOH             0.00040  0.00061  0.00083  0.00098  0.00111  0.00117  0.00122  0.00126
 AL2              0.00032  0.00038  0.00040  0.00040  0.00023  0.00021  0.00020  0.00018
 AL2C2            0.00338  0.00430  0.00478  0.00491  0.00282  0.00264  0.00249  0.00234
 AL2O             0.01710  0.01963  0.02102  0.02151  0.01678  0.01604  0.01538  0.01478
 CH3              0.00001  0.00003  0.00004  0.00006  0.00008  0.00009  0.00010  0.00011
 CH4              0.00002  0.00005  0.00009  0.00013  0.00022  0.00026  0.00029  0.00033
 *CN              0.00004  0.00006  0.00007  0.00008  0.00007  0.00007  0.00007  0.00008
 *CO              0.31110  0.30994  0.30924  0.30894  0.31073  0.31098  0.31121  0.31142
 *CO2             0.00000  0.00000  0.00000  0.00000  0.00000  0.00000  0.00000  0.00001
 C2H              0.00001  0.00002  0.00003  0.00003  0.00003  0.00003  0.00004  0.00004
 C2H2,acetylene   0.00503  0.00744  0.00984  0.01150  0.01260  0.01342  0.01413  0.01476
 C2H2,vinylidene  0.00000  0.00001  0.00001  0.00002  0.00002  0.00002  0.00002  0.00002
 CH2CO,ketene     0.00000  0.00000  0.00000  0.00000  0.00000  0.00000  0.00001  0.00001
 C2H3,vinyl       0.00000  0.00000  0.00000  0.00000  0.00001  0.00001  0.00001  0.00001
 CH3CN            0.00000  0.00000  0.00001  0.00001  0.00002  0.00002  0.00002  0.00003
 C2H4             0.00000  0.00001  0.00001  0.00002  0.00003  0.00004  0.00004  0.00005
 C2N2             0.00003  0.00005  0.00007  0.00009  0.00009  0.00010  0.00011  0.00012
 C3H3,2-propynl   0.00000  0.00001  0.00001  0.00002  0.00003  0.00004  0.00005  0.00005
 C3H4,propyne     0.00000  0.00000  0.00000  0.00000  0.00000  0.00000  0.00001  0.00001
 C4H2,butadiyne   0.00004  0.00008  0.00015  0.00020  0.00024  0.00027  0.00030  0.00033
 C6H2             0.00000  0.00000  0.00000  0.00000  0.00000  0.00000  0.00001  0.00001
 *H               0.00066  0.00063  0.00060  0.00057  0.00048  0.00047  0.00046  0.00045
 HCN              0.02594  0.03204  0.03717  0.04033  0.04140  0.04273  0.04383  0.04477
 HCO              0.00000  0.00000  0.00000  0.00000  0.00000  0.00001  0.00001  0.00001
 HNC              0.00264  0.00366  0.00460  0.00523  0.00551  0.00579  0.00603  0.00624
 *H2              0.04179  0.04133  0.04092  0.04065  0.04066  0.04054  0.04044  0.04035
 H2O              0.00000  0.00000  0.00001  0.00001  0.00002  0.00002  0.00002  0.00003
 NH3              0.00000  0.00000  0.00000  0.00001  0.00001  0.00001  0.00001  0.00002
 *N2              0.24544  0.23671  0.22936  0.22476  0.21278  0.21036  0.20834  0.20661
 ALN(L)           0.16959  0.18425  0.19650  0.20415  0.23716  0.24176  0.24562  0.24892
 C(gr)            0.10381  0.09851  0.09359  0.09033  0.08845  0.08682  0.08543  0.08422

  * THERMODYNAMIC PROPERTIES FITTED TO 20000.K

 NOTE. WEIGHT FRACTION OF FUEL IN TOTAL FUELS AND OF OXIDANT IN TOTAL OXIDANTS









         THERMODYNAMIC EQUILIBRIUM COMBUSTION PROPERTIES AT ASSIGNED

                                   PRESSURES

 CASE = MuleSimData1   

             REACTANT                    WT FRACTION      ENERGY      TEMP
                                          (SEE NOTE)     KJ/KG-MOL      K  
 OXIDANT     N2O                          1.0000000     81600.000    298.150
 FUEL        C32H66(a)                    0.6000000   -967800.000    298.150
 FUEL        AL                           0.4000000    330000.000    298.150

 O/F=    1.00000  %FUEL= 50.000000  R,EQ.RATIO= 6.660115  PHI,EQ.RATIO= 6.660115

 THERMODYNAMIC PROPERTIES

 P, BAR            22.500   25.000   27.500   30.000   32.500   35.000   37.500   40.000
 T, K             2761.69  2771.49  2780.16  2787.91  2794.88  2801.21  2806.98  2812.27
 RHO, KG/CU M    2.3076 0 2.5599 0 2.8119 0 3.0638 0 3.3155 0 3.5670 0 3.8185 0 4.0698 0
 H, KJ/KG         2729.16  2729.16  2729.16  2729.16  2729.16  2729.16  2729.16  2729.16
 U, KJ/KG         1754.12  1752.55  1751.18  1749.98  1748.91  1747.96  1747.10  1746.32
 G, KJ/KG        -26970.2 -26972.6 -26972.3 -26969.8 -26965.6 -26960.0 -26953.4 -26945.9
 S, KJ/(KG)(K)    10.7541  10.7169  10.6834  10.6528  10.6247  10.5987  10.5745  10.5520

 M, (1/n)          23.550   23.595   23.636   23.673   23.706   23.737   23.765   23.791
 MW, MOL WT        18.009   18.041   18.070   18.097   18.121   18.144   18.165   18.184
 (dLV/dLP)t      -1.04505 -1.04263 -1.04050 -1.03861 -1.03691 -1.03538 -1.03399 -1.03272
 (dLV/dLT)p        1.7808   1.7357   1.6960   1.6607   1.6291   1.6007   1.5748   1.5513
 Cp, KJ/(KG)(K)    8.0966   7.8122   7.5641   7.3453   7.1506   6.9760   6.8184   6.6753
 GAMMAs            1.1028   1.1028   1.1029   1.1029   1.1029   1.1029   1.1029   1.1029
 SON VEL,M/SEC     1037.0   1037.8   1038.5   1039.2   1039.8   1040.3   1040.7   1041.1

 MASS FRACTIONS

 *AL              0.01443  0.01342  0.01253  0.01176  0.01107  0.01045  0.00989  0.00939
 ALC2             0.00007  0.00006  0.00006  0.00006  0.00006  0.00006  0.00006  0.00005
 ALH              0.00648  0.00627  0.00607  0.00589  0.00572  0.00556  0.00541  0.00527
 ALH2             0.00003  0.00003  0.00003  0.00003  0.00003  0.00003  0.00004  0.00004
 ALH3             0.00001  0.00001  0.00001  0.00001  0.00001  0.00001  0.00001  0.00001
 ALN              0.00001  0.00001  0.00001  0.00001  0.00001  0.00001  0.00001  0.00001
 *ALO             0.00001  0.00001  0.00001  0.00001  0.00001  0.00001  0.00001  0.00001
 ALOH             0.00130  0.00134  0.00137  0.00140  0.00143  0.00145  0.00147  0.00149
 AL2              0.00017  0.00016  0.00015  0.00014  0.00014  0.00013  0.00012  0.00012
 AL2C2            0.00220  0.00208  0.00197  0.00186  0.00177  0.00168  0.00159  0.00152
 AL2O             0.01423  0.01374  0.01328  0.01286  0.01246  0.01209  0.01175  0.01143
 CH2              0.00001  0.00001  0.00001  0.00001  0.00001  0.00001  0.00001  0.00001
 CH3              0.00012  0.00013  0.00014  0.00015  0.00016  0.00017  0.00017  0.00018
 CH4              0.00036  0.00040  0.00043  0.00047  0.00050  0.00054  0.00057  0.00060
 *CN              0.00008  0.00008  0.00008  0.00008  0.00008  0.00008  0.00008  0.00008
 *CO              0.31160  0.31177  0.31193  0.31207  0.31221  0.31233  0.31245  0.31256
 *CO2             0.00001  0.00001  0.00001  0.00001  0.00001  0.00001  0.00001  0.00001
 C2H              0.00004  0.00004  0.00004  0.00004  0.00004  0.00004  0.00004  0.00004
 C2H2,acetylene   0.01531  0.01580  0.01625  0.01666  0.01703  0.01737  0.01769  0.01798
 C2H2,vinylidene  0.00003  0.00003  0.00003  0.00003  0.00003  0.00003  0.00003  0.00004
 CH2CO,ketene     0.00001  0.00001  0.00001  0.00001  0.00001  0.00001  0.00001  0.00001
 C2H3,vinyl       0.00001  0.00001  0.00001  0.00001  0.00001  0.00002  0.00002  0.00002
 CH3CN            0.00003  0.00003  0.00004  0.00004  0.00004  0.00005  0.00005  0.00005
 C2H4             0.00006  0.00006  0.00007  0.00008  0.00008  0.00009  0.00009  0.00010
 C2N2             0.00012  0.00013  0.00013  0.00014  0.00014  0.00014  0.00015  0.00015
 C3H3,2-propynl   0.00006  0.00007  0.00007  0.00008  0.00008  0.00009  0.00010  0.00010
 C3H4,allene      0.00000  0.00000  0.00000  0.00000  0.00001  0.00001  0.00001  0.00001
 C3H4,propyne     0.00001  0.00001  0.00001  0.00001  0.00001  0.00001  0.00001  0.00001
 C4H2,butadiyne   0.00036  0.00038  0.00041  0.00043  0.00045  0.00046  0.00048  0.00050
 C6H2             0.00001  0.00001  0.00001  0.00001  0.00001  0.00001  0.00001  0.00001
 *H               0.00044  0.00043  0.00043  0.00042  0.00041  0.00041  0.00040  0.00039
 HCN              0.04558  0.04629  0.04692  0.04749  0.04800  0.04846  0.04888  0.04927
 HCO              0.00001  0.00001  0.00001  0.00001  0.00001  0.00001  0.00001  0.00001
 HNC              0.00642  0.00658  0.00673  0.00686  0.00698  0.00709  0.00719  0.00728
 *H2              0.04027  0.04020  0.04014  0.04008  0.04002  0.03998  0.03993  0.03989
 H2O              0.00003  0.00003  0.00003  0.00004  0.00004  0.00004  0.00004  0.00005
 NH3              0.00002  0.00002  0.00002  0.00002  0.00002  0.00003  0.00003  0.00003
 *N2              0.20510  0.20377  0.20259  0.20153  0.20056  0.19969  0.19888  0.19815
 ALN(L)           0.25181  0.25435  0.25662  0.25866  0.26051  0.26220  0.26375  0.26517
 C(gr)            0.08314  0.08219  0.08132  0.08053  0.07981  0.07914  0.07852  0.07795

  * THERMODYNAMIC PROPERTIES FITTED TO 20000.K

 NOTE. WEIGHT FRACTION OF FUEL IN TOTAL FUELS AND OF OXIDANT IN TOTAL OXIDANTS









         THERMODYNAMIC EQUILIBRIUM COMBUSTION PROPERTIES AT ASSIGNED

                                   PRESSURES

 CASE = MuleSimData1   

             REACTANT                    WT FRACTION      ENERGY      TEMP
                                          (SEE NOTE)     KJ/KG-MOL      K  
 OXIDANT     N2O                          1.0000000     81600.000    298.150
 FUEL        C32H66(a)                    0.6000000   -967800.000    298.150
 FUEL        AL                           0.4000000    330000.000    298.150

 O/F=    1.00000  %FUEL= 50.000000  R,EQ.RATIO= 6.660115  PHI,EQ.RATIO= 6.660115

 THERMODYNAMIC PROPERTIES

 P, BAR            42.500   45.000   47.500   50.000   55.000   60.000   65.000   70.000
 T, K             2817.15  2821.65  2825.84  2829.73  2836.78  2842.99  2848.51  2853.46
 RHO, KG/CU M    4.3211 0 4.5723 0 4.8234 0 5.0745 0 5.5764 0 6.0783 0 6.5800 0 7.0817 0
 H, KJ/KG         2729.16  2729.16  2729.16  2729.16  2729.16  2729.16  2729.16  2729.16
 U, KJ/KG         1745.61  1744.97  1744.38  1743.83  1742.87  1742.04  1741.32  1740.69
 G, KJ/KG        -26937.6 -26928.8 -26919.5 -26909.8 -26889.6 -26868.5 -26846.8 -26824.9
 S, KJ/(KG)(K)    10.5308  10.5109  10.4920  10.4741  10.4410  10.4107  10.3830  10.3573

 M, (1/n)          23.815   23.838   23.859   23.878   23.914   23.946   23.975   24.002
 MW, MOL WT        18.203   18.220   18.236   18.251   18.279   18.304   18.328   18.349
 (dLV/dLP)t      -1.03157 -1.03050 -1.02952 -1.02862 -1.02700 -1.02559 -1.02436 -1.02328
 (dLV/dLT)p        1.5297   1.5098   1.4915   1.4745   1.4439   1.4173   1.3938   1.3730
 Cp, KJ/(KG)(K)    6.5447   6.4249   6.3148   6.2130   6.0310   5.8729   5.7342   5.6116
 GAMMAs            1.1028   1.1028   1.1028   1.1028   1.1028   1.1027   1.1027   1.1026
 SON VEL,M/SEC     1041.5   1041.8   1042.1   1042.4   1042.9   1043.3   1043.7   1044.0

 MASS FRACTIONS

 *AL              0.00893  0.00851  0.00812  0.00777  0.00714  0.00659  0.00612  0.00570
 ALC2             0.00005  0.00005  0.00005  0.00005  0.00005  0.00004  0.00004  0.00004
 ALH              0.00513  0.00501  0.00488  0.00477  0.00456  0.00436  0.00418  0.00402
 ALH2             0.00004  0.00004  0.00004  0.00004  0.00004  0.00004  0.00004  0.00004
 ALH3             0.00001  0.00001  0.00001  0.00001  0.00001  0.00002  0.00002  0.00002
 ALN              0.00001  0.00001  0.00001  0.00001  0.00001  0.00001  0.00001  0.00001
 *ALO             0.00001  0.00001  0.00001  0.00001  0.00001  0.00001  0.00001  0.00001
 ALOH             0.00151  0.00153  0.00155  0.00156  0.00159  0.00162  0.00164  0.00166
 AL2              0.00011  0.00010  0.00010  0.00009  0.00009  0.00008  0.00007  0.00007
 AL2C2            0.00145  0.00138  0.00132  0.00126  0.00116  0.00107  0.00099  0.00091
 AL2O             0.01112  0.01084  0.01057  0.01031  0.00983  0.00940  0.00901  0.00865
 CH2              0.00001  0.00001  0.00001  0.00001  0.00001  0.00001  0.00001  0.00001
 CH3              0.00019  0.00019  0.00020  0.00021  0.00022  0.00023  0.00025  0.00026
 CH4              0.00064  0.00067  0.00070  0.00073  0.00080  0.00087  0.00093  0.00099
 *CN              0.00008  0.00008  0.00008  0.00008  0.00008  0.00008  0.00008  0.00008
 *CO              0.31267  0.31276  0.31285  0.31294  0.31310  0.31325  0.31338  0.31350
 *CO2             0.00001  0.00001  0.00001  0.00001  0.00001  0.00001  0.00001  0.00001
 C2H              0.00004  0.00005  0.00005  0.00005  0.00005  0.00005  0.00005  0.00005
 C2H2,acetylene   0.01826  0.01851  0.01875  0.01898  0.01939  0.01975  0.02008  0.02038
 C2H2,vinylidene  0.00004  0.00004  0.00004  0.00004  0.00004  0.00004  0.00004  0.00005
 CH2CO,ketene     0.00002  0.00002  0.00002  0.00002  0.00002  0.00002  0.00002  0.00003
 C2H3,vinyl       0.00002  0.00002  0.00002  0.00002  0.00002  0.00002  0.00003  0.00003
 CH3CN            0.00006  0.00006  0.00006  0.00007  0.00007  0.00008  0.00009  0.00009
 C2H4             0.00011  0.00011  0.00012  0.00013  0.00014  0.00015  0.00017  0.00018
 C2N2             0.00015  0.00016  0.00016  0.00016  0.00017  0.00017  0.00017  0.00018
 C3H3,2-propynl   0.00011  0.00011  0.00012  0.00012  0.00013  0.00014  0.00015  0.00016
 C3H4,allene      0.00001  0.00001  0.00001  0.00001  0.00001  0.00001  0.00001  0.00001
 C3H4,propyne     0.00002  0.00002  0.00002  0.00002  0.00002  0.00002  0.00003  0.00003
 C4H2,butadiyne   0.00052  0.00053  0.00054  0.00056  0.00058  0.00061  0.00063  0.00065
 C6H2             0.00001  0.00001  0.00001  0.00001  0.00001  0.00002  0.00002  0.00002
 *H               0.00039  0.00038  0.00038  0.00037  0.00036  0.00035  0.00035  0.00034
 HCN              0.04962  0.04995  0.05025  0.05054  0.05105  0.05150  0.05190  0.05225
 HCO              0.00001  0.00001  0.00001  0.00001  0.00001  0.00001  0.00002  0.00002
 HNC              0.00737  0.00745  0.00752  0.00759  0.00772  0.00783  0.00793  0.00802
 HNCO             0.00000  0.00000  0.00000  0.00000  0.00000  0.00000  0.00000  0.00001
 *H2              0.03984  0.03981  0.03977  0.03973  0.03967  0.03961  0.03956  0.03951
 H2O              0.00005  0.00005  0.00005  0.00006  0.00006  0.00007  0.00007  0.00008
 NH3              0.00003  0.00003  0.00003  0.00004  0.00004  0.00004  0.00005  0.00005
 *N2              0.19746  0.19683  0.19624  0.19569  0.19470  0.19382  0.19303  0.19233
 ALN(L)           0.26649  0.26771  0.26884  0.26990  0.27183  0.27353  0.27505  0.27641
 C(gr)            0.07742  0.07691  0.07644  0.07600  0.07518  0.07445  0.07378  0.07317

  * THERMODYNAMIC PROPERTIES FITTED TO 20000.K

 NOTE. WEIGHT FRACTION OF FUEL IN TOTAL FUELS AND OF OXIDANT IN TOTAL OXIDANTS






 15 CONVERGENCES FAILED TO ESTABLISH SET OF CONDENSED SPECIES (EQLBRM)

 CALCULATIONS STOPPED AFTER POINT  4(EQLBRM)




         THERMODYNAMIC EQUILIBRIUM COMBUSTION PROPERTIES AT ASSIGNED

                                   PRESSURES

 CASE = MuleSimData1   

             REACTANT                    WT FRACTION      ENERGY      TEMP
                                          (SEE NOTE)     KJ/KG-MOL      K  
 OXIDANT     N2O                          1.0000000     81600.000    298.150
 FUEL        C32H66(a)                    0.6000000   -967800.000    298.150
 FUEL        AL                           0.4000000    330000.000    298.150

 O/F=    1.25000  %FUEL= 44.444444  R,EQ.RATIO= 5.328092  PHI,EQ.RATIO= 5.328092

 THERMODYNAMIC PROPERTIES

 P, BAR            1.0000   2.5000   5.0000   7.5000   12.500   15.000   17.500   20.000
 T, K             2469.70  2567.25  2642.64  2686.96  2719.63  2739.05  2755.13  2768.79
 RHO, KG/CU M    1.0597-1 2.5846-1 5.0791-1 7.5446-1 1.2699 0 1.5183 0 1.7661 0 2.0135 0
 H, KJ/KG         2631.92  2631.92  2631.92  2631.92  2631.92  2631.92  2631.92  2631.92
 U, KJ/KG         1688.29  1664.67  1647.49  1637.83  1647.56  1643.97  1641.06  1638.63
 G, KJ/KG        -26864.8 -27137.3 -27325.2 -27423.2 -27280.7 -27313.8 -27336.7 -27352.4
 S, KJ/(KG)(K)    11.9435  11.5958  11.3361  11.1855  10.9988  10.9329  10.8774  10.8294

 M, (1/n)          21.761   22.068   22.320   22.474   22.972   23.052   23.119   23.177
 MW, MOL WT        18.413   18.666   18.888   19.030   19.191   19.257   19.313   19.362
 (dLV/dLP)t      -1.14273 -1.12050 -1.10317 -1.09297 -1.06240 -1.05767 -1.05375 -1.05043
 (dLV/dLT)p        4.0230   3.4852   3.0900   2.8654   2.0948   2.0056   1.9323   1.8707
 Cp, KJ/(KG)(K)   27.2584  22.2532  18.8289  16.9695  10.0225   9.4266   8.9450   8.5447
 GAMMAs            1.0919   1.0931   1.0938   1.0941   1.1063   1.1065   1.1067   1.1068
 SON VEL,M/SEC     1015.0   1028.2   1037.7   1042.9   1043.5   1045.5   1047.2   1048.5

 MASS FRACTIONS

 *AL              0.06333  0.05051  0.04086  0.03539  0.02222  0.02009  0.01835  0.01691
 ALC2             0.00005  0.00008  0.00010  0.00011  0.00008  0.00008  0.00008  0.00008
 ALH              0.00845  0.00915  0.00937  0.00934  0.00731  0.00705  0.00682  0.00659
 ALH2             0.00001  0.00001  0.00002  0.00002  0.00002  0.00003  0.00003  0.00003
 ALH3             0.00000  0.00000  0.00000  0.00000  0.00001  0.00001  0.00001  0.00001
 ALN              0.00000  0.00001  0.00001  0.00001  0.00001  0.00001  0.00001  0.00001
 *ALO             0.00000  0.00000  0.00001  0.00001  0.00001  0.00001  0.00001  0.00001
 ALOH             0.00039  0.00060  0.00081  0.00096  0.00109  0.00115  0.00120  0.00125
 AL2              0.00031  0.00037  0.00040  0.00040  0.00025  0.00023  0.00022  0.00020
 AL2C2            0.00329  0.00423  0.00475  0.00490  0.00308  0.00291  0.00276  0.00261
 AL2O             0.01725  0.01985  0.02131  0.02183  0.01739  0.01666  0.01600  0.01541
 CH3              0.00001  0.00002  0.00004  0.00005  0.00007  0.00008  0.00009  0.00010
 CH4              0.00002  0.00004  0.00007  0.00010  0.00016  0.00019  0.00022  0.00024
 *CN              0.00005  0.00007  0.00008  0.00009  0.00009  0.00009  0.00009  0.00010
 *CO              0.34640  0.34522  0.34449  0.34417  0.34586  0.34610  0.34633  0.34653
 *CO2             0.00000  0.00000  0.00000  0.00000  0.00000  0.00000  0.00001  0.00001
 C2H              0.00001  0.00002  0.00003  0.00003  0.00003  0.00004  0.00004  0.00004
 C2H2,acetylene   0.00455  0.00674  0.00893  0.01044  0.01172  0.01251  0.01319  0.01378
 C2H2,vinylidene  0.00000  0.00001  0.00001  0.00001  0.00002  0.00002  0.00002  0.00002
 CH2CO,ketene     0.00000  0.00000  0.00000  0.00000  0.00000  0.00000  0.00001  0.00001
 C2H3,vinyl       0.00000  0.00000  0.00000  0.00000  0.00001  0.00001  0.00001  0.00001
 CH3CN            0.00000  0.00000  0.00001  0.00001  0.00001  0.00002  0.00002  0.00002
 C2H4             0.00000  0.00000  0.00001  0.00001  0.00002  0.00003  0.00003  0.00004
 C2N2             0.00003  0.00006  0.00009  0.00011  0.00013  0.00014  0.00015  0.00016
 C3H3,2-propynl   0.00000  0.00001  0.00001  0.00002  0.00003  0.00004  0.00004  0.00005
 C4H2,butadiyne   0.00003  0.00008  0.00014  0.00019  0.00024  0.00027  0.00030  0.00033
 C6H2             0.00000  0.00000  0.00000  0.00000  0.00000  0.00000  0.00001  0.00001
 *H               0.00064  0.00061  0.00058  0.00056  0.00049  0.00047  0.00046  0.00045
 HCN              0.02694  0.03341  0.03889  0.04228  0.04426  0.04576  0.04701  0.04808
 HCO              0.00000  0.00000  0.00000  0.00000  0.00001  0.00001  0.00001  0.00001
 HNC              0.00276  0.00384  0.00486  0.00553  0.00598  0.00630  0.00658  0.00682
 *H2              0.03692  0.03646  0.03605  0.03578  0.03571  0.03559  0.03548  0.03539
 H2O              0.00000  0.00000  0.00001  0.00001  0.00002  0.00002  0.00002  0.00002
 NH3              0.00000  0.00000  0.00000  0.00001  0.00001  0.00001  0.00001  0.00001
 *N2              0.29137  0.28262  0.27519  0.27052  0.25892  0.25639  0.25426  0.25243
 ALN(L)           0.13692  0.15101  0.16282  0.17024  0.20048  0.20509  0.20897  0.21232
 C(gr)            0.06023  0.05495  0.05005  0.04681  0.04426  0.04258  0.04114  0.03989

  * THERMODYNAMIC PROPERTIES FITTED TO 20000.K

 NOTE. WEIGHT FRACTION OF FUEL IN TOTAL FUELS AND OF OXIDANT IN TOTAL OXIDANTS









         THERMODYNAMIC EQUILIBRIUM COMBUSTION PROPERTIES AT ASSIGNED

                                   PRESSURES

 CASE = MuleSimData1   

             REACTANT                    WT FRACTION      ENERGY      TEMP
                                          (SEE NOTE)     KJ/KG-MOL      K  
 OXIDANT     N2O                          1.0000000     81600.000    298.150
 FUEL        C32H66(a)                    0.6000000   -967800.000    298.150
 FUEL        AL                           0.4000000    330000.000    298.150

 O/F=    1.25000  %FUEL= 44.444444  R,EQ.RATIO= 5.328092  PHI,EQ.RATIO= 5.328092

 THERMODYNAMIC PROPERTIES

 P, BAR            22.500   25.000   27.500   30.000   32.500   35.000   37.500   40.000
 T, K             2780.59  2790.94  2800.12  2808.34  2815.75  2822.49  2828.65  2834.30
 RHO, KG/CU M    2.2605 0 2.5072 0 2.7536 0 2.9998 0 3.2458 0 3.4916 0 3.7373 0 3.9829 0
 H, KJ/KG         2631.92  2631.92  2631.92  2631.92  2631.92  2631.92  2631.92  2631.92
 U, KJ/KG         1636.57  1634.79  1633.23  1631.85  1630.63  1629.52  1628.53  1627.63
 G, KJ/KG        -27362.9 -27369.4 -27372.8 -27373.8 -27372.8 -27370.2 -27366.4 -27361.5
 S, KJ/(KG)(K)    10.7872  10.7495  10.7155  10.6845  10.6560  10.6297  10.6052  10.5823

 M, (1/n)          23.227   23.272   23.312   23.348   23.381   23.412   23.439   23.465
 MW, MOL WT        19.405   19.444   19.479   19.511   19.540   19.567   19.592   19.615
 (dLV/dLP)t      -1.04756 -1.04506 -1.04285 -1.04087 -1.03909 -1.03749 -1.03602 -1.03469
 (dLV/dLT)p        1.8177   1.7716   1.7309   1.6947   1.6623   1.6329   1.6062   1.5818
 Cp, KJ/(KG)(K)    8.2050   7.9119   7.6558   7.4295   7.2277   7.0465   6.8827   6.7337
 GAMMAs            1.1069   1.1070   1.1071   1.1072   1.1072   1.1073   1.1073   1.1074
 SON VEL,M/SEC     1049.6   1050.6   1051.5   1052.3   1052.9   1053.5   1054.1   1054.6

 MASS FRACTIONS

 *AL              0.01568  0.01462  0.01370  0.01288  0.01215  0.01150  0.01091  0.01038
 ALC2             0.00008  0.00008  0.00008  0.00007  0.00007  0.00007  0.00007  0.00007
 ALH              0.00639  0.00620  0.00602  0.00585  0.00569  0.00554  0.00540  0.00526
 ALH2             0.00003  0.00003  0.00003  0.00003  0.00003  0.00003  0.00003  0.00003
 ALH3             0.00001  0.00001  0.00001  0.00001  0.00001  0.00001  0.00001  0.00001
 ALN              0.00001  0.00001  0.00001  0.00001  0.00001  0.00001  0.00001  0.00001
 *ALO             0.00001  0.00001  0.00001  0.00001  0.00001  0.00001  0.00001  0.00001
 ALOH             0.00128  0.00132  0.00135  0.00138  0.00141  0.00143  0.00145  0.00147
 AL2              0.00019  0.00018  0.00017  0.00016  0.00015  0.00015  0.00014  0.00013
 AL2C2            0.00247  0.00235  0.00223  0.00212  0.00202  0.00192  0.00184  0.00175
 AL2O             0.01487  0.01437  0.01392  0.01349  0.01310  0.01273  0.01238  0.01205
 CH2              0.00000  0.00001  0.00001  0.00001  0.00001  0.00001  0.00001  0.00001
 CH3              0.00010  0.00011  0.00012  0.00013  0.00013  0.00014  0.00015  0.00015
 CH4              0.00027  0.00029  0.00032  0.00035  0.00037  0.00039  0.00042  0.00044
 *CN              0.00010  0.00010  0.00010  0.00010  0.00010  0.00010  0.00010  0.00010
 *CO              0.34672  0.34689  0.34704  0.34719  0.34732  0.34745  0.34757  0.34768
 *CO2             0.00001  0.00001  0.00001  0.00001  0.00001  0.00001  0.00001  0.00001
 C2H              0.00004  0.00004  0.00005  0.00005  0.00005  0.00005  0.00005  0.00005
 C2H2,acetylene   0.01432  0.01480  0.01523  0.01563  0.01599  0.01633  0.01664  0.01693
 C2H2,vinylidene  0.00003  0.00003  0.00003  0.00003  0.00003  0.00003  0.00003  0.00004
 CH2CO,ketene     0.00001  0.00001  0.00001  0.00001  0.00001  0.00001  0.00001  0.00001
 C2H3,vinyl       0.00001  0.00001  0.00001  0.00001  0.00001  0.00001  0.00001  0.00002
 CH3CN            0.00003  0.00003  0.00003  0.00004  0.00004  0.00004  0.00005  0.00005
 C2H4             0.00004  0.00005  0.00005  0.00006  0.00006  0.00007  0.00007  0.00008
 C2N2             0.00016  0.00017  0.00018  0.00018  0.00019  0.00020  0.00020  0.00021
 C3H3,2-propynl   0.00005  0.00006  0.00007  0.00007  0.00008  0.00008  0.00009  0.00009
 C3H4,allene      0.00000  0.00000  0.00000  0.00000  0.00000  0.00000  0.00000  0.00001
 C3H4,propyne     0.00001  0.00001  0.00001  0.00001  0.00001  0.00001  0.00001  0.00001
 C4H2,butadiyne   0.00036  0.00038  0.00041  0.00043  0.00045  0.00047  0.00049  0.00051
 C6H2             0.00001  0.00001  0.00001  0.00001  0.00001  0.00001  0.00001  0.00001
 *H               0.00045  0.00044  0.00043  0.00042  0.00042  0.00041  0.00041  0.00040
 HCN              0.04901  0.04983  0.05056  0.05122  0.05181  0.05235  0.05284  0.05329
 HCO              0.00001  0.00001  0.00001  0.00001  0.00001  0.00001  0.00001  0.00001
 HNC              0.00703  0.00722  0.00739  0.00754  0.00768  0.00781  0.00793  0.00804
 *H2              0.03531  0.03524  0.03517  0.03511  0.03506  0.03501  0.03496  0.03492
 H2O              0.00003  0.00003  0.00003  0.00003  0.00004  0.00004  0.00004  0.00004
 NH3              0.00002  0.00002  0.00002  0.00002  0.00002  0.00002  0.00002  0.00003
 *N2              0.25083  0.24942  0.24816  0.24702  0.24598  0.24504  0.24418  0.24338
 ALN(L)           0.21524  0.21783  0.22014  0.22223  0.22412  0.22585  0.22744  0.22891
 C(gr)            0.03877  0.03778  0.03688  0.03606  0.03531  0.03462  0.03397  0.03338

  * THERMODYNAMIC PROPERTIES FITTED TO 20000.K

 NOTE. WEIGHT FRACTION OF FUEL IN TOTAL FUELS AND OF OXIDANT IN TOTAL OXIDANTS









         THERMODYNAMIC EQUILIBRIUM COMBUSTION PROPERTIES AT ASSIGNED

                                   PRESSURES

 CASE = MuleSimData1   

             REACTANT                    WT FRACTION      ENERGY      TEMP
                                          (SEE NOTE)     KJ/KG-MOL      K  
 OXIDANT     N2O                          1.0000000     81600.000    298.150
 FUEL        C32H66(a)                    0.6000000   -967800.000    298.150
 FUEL        AL                           0.4000000    330000.000    298.150

 O/F=    1.25000  %FUEL= 44.444444  R,EQ.RATIO= 5.328092  PHI,EQ.RATIO= 5.328092

 THERMODYNAMIC PROPERTIES

 P, BAR            42.500   45.000   47.500   50.000   55.000   60.000   65.000   70.000
 T, K             2839.51  2844.34  2848.83  2853.01  2860.59  2867.29  2873.26  2878.61
 RHO, KG/CU M    4.2284 0 4.4737 0 4.7190 0 4.9642 0 5.4544 0 5.9444 0 6.4342 0 6.9239 0
 H, KJ/KG         2631.92  2631.92  2631.92  2631.92  2631.92  2631.92  2631.92  2631.92
 U, KJ/KG         1626.80  1626.04  1625.35  1624.71  1623.56  1622.56  1621.69  1620.93
 G, KJ/KG        -27355.7 -27349.2 -27342.0 -27334.4 -27317.8 -27300.0 -27281.4 -27262.2
 S, KJ/(KG)(K)    10.5608  10.5406  10.5215  10.5034  10.4698  10.4391  10.4109  10.3849

 M, (1/n)          23.489   23.511   23.532   23.551   23.587   23.619   23.648   23.674
 MW, MOL WT        19.637   19.658   19.677   19.695   19.729   19.759   19.786   19.812
 (dLV/dLP)t      -1.03346 -1.03233 -1.03128 -1.03031 -1.02856 -1.02704 -1.02570 -1.02451
 (dLV/dLT)p        1.5594   1.5388   1.5197   1.5019   1.4700   1.4421   1.4174   1.3954
 Cp, KJ/(KG)(K)    6.5975   6.4725   6.3573   6.2507   6.0598   5.8936   5.7474   5.6179
 GAMMAs            1.1074   1.1075   1.1075   1.1075   1.1076   1.1076   1.1077   1.1077
 SON VEL,M/SEC     1055.0   1055.5   1055.8   1056.2   1056.8   1057.4   1057.8   1058.2

 MASS FRACTIONS

 *AL              0.00989  0.00944  0.00903  0.00865  0.00797  0.00738  0.00687  0.00641
 ALC2             0.00007  0.00006  0.00006  0.00006  0.00006  0.00006  0.00005  0.00005
 ALH              0.00514  0.00502  0.00490  0.00479  0.00459  0.00440  0.00423  0.00407
 ALH2             0.00003  0.00003  0.00003  0.00003  0.00003  0.00003  0.00003  0.00003
 ALH3             0.00001  0.00001  0.00001  0.00001  0.00001  0.00001  0.00001  0.00001
 ALN              0.00001  0.00001  0.00001  0.00001  0.00001  0.00001  0.00001  0.00001
 *ALO             0.00001  0.00001  0.00001  0.00001  0.00001  0.00001  0.00001  0.00001
 ALOH             0.00149  0.00151  0.00153  0.00155  0.00158  0.00160  0.00163  0.00165
 AL2              0.00013  0.00012  0.00011  0.00011  0.00010  0.00009  0.00009  0.00008
 AL2C2            0.00168  0.00161  0.00154  0.00148  0.00136  0.00126  0.00117  0.00109
 AL2O             0.01175  0.01146  0.01118  0.01092  0.01044  0.01000  0.00959  0.00922
 CH2              0.00001  0.00001  0.00001  0.00001  0.00001  0.00001  0.00001  0.00001
 CH3              0.00016  0.00017  0.00017  0.00018  0.00019  0.00020  0.00021  0.00022
 CH4              0.00047  0.00049  0.00052  0.00054  0.00059  0.00063  0.00068  0.00073
 *CN              0.00010  0.00010  0.00010  0.00010  0.00010  0.00010  0.00010  0.00010
 *CO              0.34778  0.34788  0.34798  0.34807  0.34823  0.34838  0.34851  0.34864
 *CO2             0.00001  0.00001  0.00001  0.00001  0.00001  0.00002  0.00002  0.00002
 C2H              0.00005  0.00005  0.00005  0.00005  0.00005  0.00005  0.00005  0.00005
 C2H2,acetylene   0.01720  0.01745  0.01768  0.01791  0.01831  0.01868  0.01901  0.01930
 C2H2,vinylidene  0.00004  0.00004  0.00004  0.00004  0.00004  0.00004  0.00004  0.00005
 CH2CO,ketene     0.00002  0.00002  0.00002  0.00002  0.00002  0.00002  0.00002  0.00003
 C2H3,vinyl       0.00002  0.00002  0.00002  0.00002  0.00002  0.00002  0.00002  0.00002
 CH3CN            0.00005  0.00005  0.00006  0.00006  0.00007  0.00007  0.00008  0.00009
 C2H4             0.00008  0.00009  0.00009  0.00010  0.00011  0.00012  0.00013  0.00014
 C2N2             0.00021  0.00021  0.00022  0.00022  0.00023  0.00023  0.00024  0.00025
 C3H3,2-propynl   0.00010  0.00010  0.00011  0.00011  0.00012  0.00013  0.00014  0.00015
 C3H4,allene      0.00001  0.00001  0.00001  0.00001  0.00001  0.00001  0.00001  0.00001
 C3H4,propyne     0.00001  0.00001  0.00001  0.00001  0.00002  0.00002  0.00002  0.00002
 C4H2,butadiyne   0.00052  0.00054  0.00055  0.00057  0.00060  0.00062  0.00064  0.00067
 C4N2             0.00000  0.00000  0.00000  0.00000  0.00000  0.00000  0.00001  0.00001
 C6H2             0.00001  0.00001  0.00001  0.00001  0.00002  0.00002  0.00002  0.00002
 *H               0.00039  0.00039  0.00038  0.00038  0.00037  0.00036  0.00035  0.00035
 HCN              0.05371  0.05410  0.05446  0.05479  0.05540  0.05594  0.05641  0.05684
 HCO              0.00001  0.00001  0.00001  0.00001  0.00002  0.00002  0.00002  0.00002
 HNC              0.00814  0.00824  0.00832  0.00841  0.00856  0.00869  0.00882  0.00892
 HNCO             0.00000  0.00000  0.00000  0.00000  0.00000  0.00000  0.00001  0.00001
 *H2              0.03487  0.03484  0.03480  0.03477  0.03470  0.03464  0.03459  0.03454
 H2O              0.00005  0.00005  0.00005  0.00005  0.00006  0.00006  0.00006  0.00007
 NH3              0.00003  0.00003  0.00003  0.00003  0.00004  0.00004  0.00004  0.00004
 *N2              0.24264  0.24195  0.24131  0.24071  0.23963  0.23866  0.23780  0.23703
 ALN(L)           0.23027  0.23154  0.23272  0.23382  0.23582  0.23760  0.23919  0.24062
 C(gr)            0.03282  0.03230  0.03181  0.03134  0.03049  0.02973  0.02903  0.02840

  * THERMODYNAMIC PROPERTIES FITTED TO 20000.K

 NOTE. WEIGHT FRACTION OF FUEL IN TOTAL FUELS AND OF OXIDANT IN TOTAL OXIDANTS









         THERMODYNAMIC EQUILIBRIUM COMBUSTION PROPERTIES AT ASSIGNED

                                   PRESSURES

 CASE = MuleSimData1   

             REACTANT                    WT FRACTION      ENERGY      TEMP
                                          (SEE NOTE)     KJ/KG-MOL      K  
 OXIDANT     N2O                          1.0000000     81600.000    298.150
 FUEL        C32H66(a)                    0.6000000   -967800.000    298.150
 FUEL        AL                           0.4000000    330000.000    298.150

 O/F=    1.50000  %FUEL= 40.000000  R,EQ.RATIO= 4.440076  PHI,EQ.RATIO= 4.440076

 THERMODYNAMIC PROPERTIES

 P, BAR            1.0000   2.5000   5.0000   7.5000   10.000   12.500   15.000   17.500
 T, K             2473.70  2572.20  2648.51  2693.48  2707.28  2732.37  2752.54  2769.30
 RHO, KG/CU M    1.0495-1 2.5574-1 5.0221-1 7.4567-1 1.0048 0 1.2498 0 1.4939 0 1.7373 0
 H, KJ/KG         2554.13  2554.13  2554.13  2554.13  2554.13  2554.13  2554.13  2554.13
 U, KJ/KG         1601.25  1576.58  1558.53  1548.33  1558.94  1553.94  1550.01  1546.81
 G, KJ/KG        -27070.6 -27348.3 -27541.5 -27643.4 -27509.5 -27564.5 -27603.4 -27631.6
 S, KJ/(KG)(K)    11.9759  11.6252  11.3632  11.2113  11.1048  11.0229  10.9563  10.9001

 M, (1/n)          21.585   21.878   22.118   22.266   22.619   22.714   22.792   22.858
 MW, MOL WT        19.549   19.829   20.076   20.235   20.334   20.425   20.501   20.566
 (dLV/dLP)t      -1.14225 -1.12056 -1.10359 -1.09357 -1.07123 -1.06529 -1.06052 -1.05655
 (dLV/dLT)p        4.0045   3.4779   3.0904   2.8697   2.2505   2.1377   2.0480   1.9741
 Cp, KJ/(KG)(K)   27.1246  22.1800  18.7911  16.9481  10.9813  10.2038   9.5981   9.1073
 GAMMAs            1.0935   1.0949   1.0959   1.0963   1.1090   1.1094   1.1097   1.1100
 SON VEL,M/SEC     1020.8   1034.6   1044.5   1050.1   1050.6   1053.4   1055.6   1057.4

 MASS FRACTIONS

 *AL              0.06342  0.05089  0.04140  0.03599  0.02643  0.02366  0.02148  0.01971
 ALC2             0.00005  0.00008  0.00010  0.00011  0.00009  0.00009  0.00009  0.00009
 ALH              0.00792  0.00861  0.00885  0.00885  0.00742  0.00718  0.00695  0.00674
 ALH2             0.00001  0.00001  0.00002  0.00002  0.00002  0.00002  0.00002  0.00003
 ALH3             0.00000  0.00000  0.00000  0.00000  0.00000  0.00000  0.00001  0.00001
 ALN              0.00001  0.00001  0.00001  0.00001  0.00001  0.00001  0.00001  0.00001
 *ALO             0.00000  0.00000  0.00001  0.00001  0.00001  0.00001  0.00001  0.00001
 ALOH             0.00039  0.00059  0.00080  0.00095  0.00101  0.00107  0.00113  0.00118
 AL2              0.00031  0.00037  0.00040  0.00040  0.00028  0.00027  0.00025  0.00024
 AL2C2            0.00324  0.00421  0.00477  0.00495  0.00352  0.00336  0.00321  0.00306
 AL2O             0.01744  0.02014  0.02168  0.02226  0.01892  0.01811  0.01739  0.01675
 CH3              0.00001  0.00002  0.00003  0.00004  0.00005  0.00006  0.00007  0.00008
 CH4              0.00002  0.00003  0.00006  0.00008  0.00010  0.00013  0.00015  0.00017
 *CN              0.00005  0.00007  0.00009  0.00010  0.00010  0.00010  0.00011  0.00011
 *CO              0.37461  0.37339  0.37263  0.37230  0.37359  0.37386  0.37411  0.37433
 *CO2             0.00000  0.00000  0.00000  0.00000  0.00000  0.00000  0.00001  0.00001
 C2H              0.00001  0.00002  0.00003  0.00003  0.00003  0.00004  0.00004  0.00004
 C2H2,acetylene   0.00415  0.00615  0.00815  0.00954  0.01003  0.01091  0.01166  0.01231
 C2H2,vinylidene  0.00000  0.00001  0.00001  0.00001  0.00001  0.00002  0.00002  0.00002
 CH2CO,ketene     0.00000  0.00000  0.00000  0.00000  0.00000  0.00000  0.00000  0.00001
 C2H3,vinyl       0.00000  0.00000  0.00000  0.00000  0.00000  0.00000  0.00001  0.00001
 CH3CN            0.00000  0.00000  0.00000  0.00001  0.00001  0.00001  0.00002  0.00002
 C2H4             0.00000  0.00000  0.00001  0.00001  0.00001  0.00002  0.00002  0.00003
 C2N2             0.00004  0.00007  0.00010  0.00013  0.00014  0.00015  0.00017  0.00018
 C3H3,2-propynl   0.00000  0.00001  0.00001  0.00002  0.00002  0.00003  0.00003  0.00004
 C4H2,butadiyne   0.00003  0.00007  0.00013  0.00018  0.00019  0.00023  0.00026  0.00030
 C6H2             0.00000  0.00000  0.00000  0.00000  0.00000  0.00000  0.00000  0.00001
 *H               0.00062  0.00059  0.00057  0.00054  0.00049  0.00048  0.00047  0.00046
 HCN              0.02733  0.03399  0.03966  0.04318  0.04389  0.04587  0.04750  0.04886
 HCO              0.00000  0.00000  0.00000  0.00000  0.00000  0.00001  0.00001  0.00001
 HNC              0.00282  0.00393  0.00498  0.00568  0.00586  0.00628  0.00663  0.00693
 *H2              0.03304  0.03258  0.03218  0.03192  0.03194  0.03179  0.03166  0.03155
 H2O              0.00000  0.00000  0.00001  0.00001  0.00001  0.00002  0.00002  0.00002
 NH3              0.00000  0.00000  0.00000  0.00001  0.00001  0.00001  0.00001  0.00001
 *N2              0.32849  0.31980  0.31240  0.30773  0.29969  0.29651  0.29390  0.29169
 ALN(L)           0.11038  0.12392  0.13532  0.14250  0.16469  0.17030  0.17491  0.17881
 C(gr)            0.02559  0.02041  0.01558  0.01239  0.01139  0.00935  0.00764  0.00617

  * THERMODYNAMIC PROPERTIES FITTED TO 20000.K

 NOTE. WEIGHT FRACTION OF FUEL IN TOTAL FUELS AND OF OXIDANT IN TOTAL OXIDANTS









         THERMODYNAMIC EQUILIBRIUM COMBUSTION PROPERTIES AT ASSIGNED

                                   PRESSURES

 CASE = MuleSimData1   

             REACTANT                    WT FRACTION      ENERGY      TEMP
                                          (SEE NOTE)     KJ/KG-MOL      K  
 OXIDANT     N2O                          1.0000000     81600.000    298.150
 FUEL        C32H66(a)                    0.6000000   -967800.000    298.150
 FUEL        AL                           0.4000000    330000.000    298.150

 O/F=    1.50000  %FUEL= 40.000000  R,EQ.RATIO= 4.440076  PHI,EQ.RATIO= 4.440076

 THERMODYNAMIC PROPERTIES

 P, BAR            20.000   22.500   25.000   27.500   30.000   32.500   35.000   37.500
 T, K             2783.56  2795.93  2806.79  2816.45  2825.11  2832.95  2840.83  2848.37
 RHO, KG/CU M    1.9802 0 2.2227 0 2.4648 0 2.7067 0 2.9482 0 3.1896 0 3.4292 0 3.6680 0
 H, KJ/KG         2554.13  2554.13  2554.13  2554.13  2554.13  2554.13  2554.13  2554.13
 U, KJ/KG         1544.13  1541.84  1539.86  1538.12  1536.58  1535.20  1533.50  1531.76
 G, KJ/KG        -27652.0 -27666.8 -27677.3 -27684.4 -27688.8 -27691.1 -27699.5 -27709.3
 S, KJ/(KG)(K)    10.8516  10.8089  10.7708  10.7364  10.7050  10.6762  10.6496  10.6248

 M, (1/n)          22.915   22.965   23.009   23.048   23.084   23.117   23.143   23.165
 MW, MOL WT        20.622   20.672   20.717   20.757   20.794   20.828   20.841   20.847
 (dLV/dLP)t      -1.05317 -1.05025 -1.04769 -1.04541 -1.04337 -1.04154 -1.04005 -1.03878
 (dLV/dLT)p        1.9118   1.8581   1.8112   1.7698   1.7328   1.6996   1.6771   1.6543
 Cp, KJ/(KG)(K)    8.6984   8.3507   8.0500   7.7866   7.5534   7.3452   6.2944   6.1458
 GAMMAs            1.1102   1.1104   1.1106   1.1107   1.1109   1.1110   1.1370   1.1377
 SON VEL,M/SEC     1058.9   1060.2   1061.3   1062.3   1063.2   1064.0   1077.2   1078.5

 MASS FRACTIONS

 *AL              0.01823  0.01696  0.01586  0.01490  0.01405  0.01329  0.01268  0.01215
 ALC2             0.00009  0.00009  0.00009  0.00009  0.00009  0.00009  0.00008  0.00008
 ALH              0.00654  0.00635  0.00617  0.00601  0.00585  0.00570  0.00559  0.00550
 ALH2             0.00003  0.00003  0.00003  0.00003  0.00003  0.00003  0.00003  0.00003
 ALH3             0.00001  0.00001  0.00001  0.00001  0.00001  0.00001  0.00001  0.00001
 ALN              0.00001  0.00001  0.00001  0.00001  0.00001  0.00001  0.00001  0.00001
 *ALO             0.00001  0.00001  0.00001  0.00001  0.00001  0.00001  0.00001  0.00001
 ALOH             0.00123  0.00127  0.00130  0.00133  0.00136  0.00139  0.00143  0.00148
 AL2              0.00022  0.00021  0.00020  0.00019  0.00018  0.00017  0.00017  0.00016
 AL2C2            0.00291  0.00277  0.00265  0.00253  0.00241  0.00231  0.00219  0.00207
 AL2O             0.01616  0.01563  0.01514  0.01468  0.01426  0.01386  0.01367  0.01355
 CH2              0.00000  0.00000  0.00001  0.00001  0.00001  0.00001  0.00001  0.00001
 CH3              0.00008  0.00009  0.00010  0.00010  0.00011  0.00012  0.00012  0.00012
 CH4              0.00019  0.00021  0.00023  0.00024  0.00026  0.00028  0.00030  0.00031
 *CN              0.00011  0.00012  0.00012  0.00012  0.00012  0.00012  0.00012  0.00012
 *CO              0.37453  0.37471  0.37488  0.37503  0.37518  0.37532  0.37536  0.37537
 *CO2             0.00001  0.00001  0.00001  0.00001  0.00001  0.00001  0.00001  0.00001
 C2H              0.00004  0.00005  0.00005  0.00005  0.00005  0.00005  0.00005  0.00005
 C2H2,acetylene   0.01289  0.01340  0.01386  0.01428  0.01467  0.01502  0.01510  0.01507
 C2H2,vinylidene  0.00002  0.00003  0.00003  0.00003  0.00003  0.00003  0.00003  0.00003
 CH2CO,ketene     0.00001  0.00001  0.00001  0.00001  0.00001  0.00001  0.00001  0.00001
 C2H3,vinyl       0.00001  0.00001  0.00001  0.00001  0.00001  0.00001  0.00001  0.00001
 CH3CN            0.00002  0.00002  0.00003  0.00003  0.00003  0.00004  0.00004  0.00004
 C2H4             0.00003  0.00003  0.00004  0.00004  0.00005  0.00005  0.00005  0.00005
 C2N2             0.00019  0.00020  0.00021  0.00022  0.00023  0.00024  0.00024  0.00024
 C3H3,2-propynl   0.00004  0.00005  0.00005  0.00006  0.00006  0.00007  0.00007  0.00007
 C3H4,propyne     0.00000  0.00000  0.00001  0.00001  0.00001  0.00001  0.00001  0.00001
 C4H2,butadiyne   0.00032  0.00035  0.00038  0.00040  0.00043  0.00045  0.00045  0.00045
 C6H2             0.00001  0.00001  0.00001  0.00001  0.00001  0.00001  0.00001  0.00001
 *H               0.00045  0.00045  0.00044  0.00043  0.00043  0.00042  0.00042  0.00041
 HCN              0.05002  0.05104  0.05194  0.05274  0.05347  0.05412  0.05431  0.05433
 HCO              0.00001  0.00001  0.00001  0.00001  0.00001  0.00001  0.00001  0.00001
 HNC              0.00720  0.00743  0.00764  0.00783  0.00800  0.00815  0.00824  0.00830
 *H2              0.03146  0.03138  0.03131  0.03124  0.03118  0.03112  0.03111  0.03111
 H2O              0.00002  0.00002  0.00003  0.00003  0.00003  0.00003  0.00004  0.00004
 NH3              0.00001  0.00001  0.00002  0.00002  0.00002  0.00002  0.00002  0.00002
 *N2              0.28979  0.28813  0.28665  0.28533  0.28413  0.28304  0.28241  0.28196
 ALN(L)           0.18217  0.18512  0.18774  0.19009  0.19221  0.19414  0.19556  0.19673
 C(gr)            0.00489  0.00376  0.00274  0.00182  0.00098  0.00021  0.00000  0.00000

  * THERMODYNAMIC PROPERTIES FITTED TO 20000.K

 NOTE. WEIGHT FRACTION OF FUEL IN TOTAL FUELS AND OF OXIDANT IN TOTAL OXIDANTS









         THERMODYNAMIC EQUILIBRIUM COMBUSTION PROPERTIES AT ASSIGNED

                                   PRESSURES

 CASE = MuleSimData1   

             REACTANT                    WT FRACTION      ENERGY      TEMP
                                          (SEE NOTE)     KJ/KG-MOL      K  
 OXIDANT     N2O                          1.0000000     81600.000    298.150
 FUEL        C32H66(a)                    0.6000000   -967800.000    298.150
 FUEL        AL                           0.4000000    330000.000    298.150

 O/F=    1.50000  %FUEL= 40.000000  R,EQ.RATIO= 4.440076  PHI,EQ.RATIO= 4.440076

 THERMODYNAMIC PROPERTIES

 P, BAR            40.000   42.500   45.000   47.500   50.000   55.000   60.000   65.000
 T, K             2855.37  2861.88  2867.97  2873.68  2879.06  2888.92  2897.78  2905.81
 RHO, KG/CU M    3.9064 0 4.1445 0 4.3823 0 4.6199 0 4.8573 0 5.3315 0 5.8050 0 6.2778 0
 H, KJ/KG         2554.13  2554.13  2554.13  2554.13  2554.13  2554.13  2554.13  2554.13
 U, KJ/KG         1530.16  1528.67  1527.28  1525.98  1524.76  1522.53  1520.53  1518.73
 G, KJ/KG        -27717.5 -27724.3 -27730.0 -27734.8 -27738.6 -27744.0 -27746.9 -27747.9
 S, KJ/(KG)(K)    10.6017  10.5799  10.5594  10.5401  10.5218  10.4877  10.4566  10.4281

 M, (1/n)          23.185   23.204   23.222   23.239   23.255   23.284   23.310   23.334
[...]
 NO2              0.00004  0.00006  0.00008  0.00010  0.00012  0.00013  0.00014  0.00016
 *N2              0.60879  0.60829  0.60797  0.60781  0.60770  0.60763  0.60757  0.60752
 N2O              0.00000  0.00000  0.00000  0.00001  0.00001  0.00001  0.00001  0.00001
 *O               0.00432  0.00308  0.00234  0.00198  0.00175  0.00160  0.00147  0.00138
 *OH              0.00543  0.00472  0.00419  0.00389  0.00369  0.00353  0.00341  0.00331
 *O2              0.27321  0.27375  0.27408  0.27424  0.27435  0.27443  0.27448  0.27453
 AL2O3(L)         0.01963  0.01963  0.01963  0.01963  0.01963  0.01963  0.01963  0.01963

  * THERMODYNAMIC PROPERTIES FITTED TO 20000.K

 NOTE. WEIGHT FRACTION OF FUEL IN TOTAL FUELS AND OF OXIDANT IN TOTAL OXIDANTS









         THERMODYNAMIC EQUILIBRIUM COMBUSTION PROPERTIES AT ASSIGNED

                                   PRESSURES

 CASE = MuleSimData1   

             REACTANT                    WT FRACTION      ENERGY      TEMP
                                          (SEE NOTE)     KJ/KG-MOL      K  
 OXIDANT     N2O                          1.0000000     81600.000    298.150
 FUEL        C32H66(a)                    0.6000000   -967800.000    298.150
 FUEL        AL                           0.4000000    330000.000    298.150

 O/F=   37.50000  %FUEL=  2.597403  R,EQ.RATIO= 0.177603  PHI,EQ.RATIO= 0.177603

 THERMODYNAMIC PROPERTIES

 P, BAR            20.000   22.500   25.000   27.500   30.000   32.500   35.000   37.500
 T, K             2582.01  2583.54  2584.86  2586.02  2587.04  2587.96  2588.78  2589.54
 RHO, KG/CU M    2.7743 0 3.1196 0 3.4648 0 3.8099 0 4.1550 0 4.5000 0 4.8450 0 5.1898 0
 H, KJ/KG         1899.47  1899.47  1899.47  1899.47  1899.47  1899.47  1899.47  1899.47
 U, KJ/KG         1178.55  1178.22  1177.93  1177.67  1177.45  1177.25  1177.07  1176.90
 G, KJ/KG        -20136.8 -20064.9 -20000.1 -19941.1 -19886.9 -19836.8 -19790.2 -19746.7
 S, KJ/(KG)(K)     8.5345   8.5017   8.4722   8.4456   8.4214   8.3990   8.3783   8.3591

 M, (1/n)          29.779   29.783   29.786   29.789   29.791   29.794   29.796   29.798
 MW, MOL WT        29.609   29.613   29.616   29.619   29.622   29.624   29.626   29.628
 (dLV/dLP)t      -1.00124 -1.00119 -1.00115 -1.00111 -1.00108 -1.00105 -1.00103 -1.00100
 (dLV/dLT)p        1.0309   1.0295   1.0284   1.0274   1.0266   1.0258   1.0251   1.0244
 Cp, KJ/(KG)(K)    1.6823   1.6733   1.6655   1.6588   1.6528   1.6474   1.6426   1.6383
 GAMMAs            1.2123   1.2131   1.2138   1.2143   1.2149   1.2153   1.2158   1.2162
 SON VEL,M/SEC      934.9    935.4    935.8    936.2    936.6    936.9    937.2    937.4

 MASS FRACTIONS

 AL(OH)3          0.00000  0.00000  0.00000  0.00001  0.00001  0.00001  0.00001  0.00001
 *CO              0.00075  0.00071  0.00068  0.00065  0.00063  0.00061  0.00059  0.00057
 *CO2             0.04750  0.04756  0.04761  0.04765  0.04769  0.04772  0.04775  0.04778
 HO2              0.00003  0.00003  0.00003  0.00003  0.00003  0.00003  0.00003  0.00003
 *H2              0.00001  0.00001  0.00001  0.00001  0.00001  0.00001  0.00001  0.00001
 H2O              0.01874  0.01878  0.01882  0.01886  0.01889  0.01892  0.01894  0.01897
 *NO              0.02660  0.02667  0.02673  0.02678  0.02682  0.02686  0.02690  0.02693
 NO2              0.00017  0.00018  0.00019  0.00020  0.00020  0.00021  0.00022  0.00023
 *N2              0.60748  0.60744  0.60741  0.60738  0.60736  0.60734  0.60732  0.60730
 N2O              0.00001  0.00001  0.00001  0.00001  0.00001  0.00001  0.00001  0.00001
 *O               0.00130  0.00124  0.00118  0.00113  0.00109  0.00105  0.00101  0.00098
 *OH              0.00322  0.00314  0.00308  0.00302  0.00296  0.00291  0.00287  0.00283
 *O2              0.27457  0.27460  0.27462  0.27465  0.27467  0.27468  0.27470  0.27471
 AL2O3(L)         0.01963  0.01963  0.01963  0.01963  0.01963  0.01963  0.01963  0.01963

  * THERMODYNAMIC PROPERTIES FITTED TO 20000.K

 NOTE. WEIGHT FRACTION OF FUEL IN TOTAL FUELS AND OF OXIDANT IN TOTAL OXIDANTS









         THERMODYNAMIC EQUILIBRIUM COMBUSTION PROPERTIES AT ASSIGNED

                                   PRESSURES

 CASE = MuleSimData1   

             REACTANT                    WT FRACTION      ENERGY      TEMP
                                          (SEE NOTE)     KJ/KG-MOL      K  
 OXIDANT     N2O                          1.0000000     81600.000    298.150
 FUEL        C32H66(a)                    0.6000000   -967800.000    298.150
 FUEL        AL                           0.4000000    330000.000    298.150

 O/F=   37.50000  %FUEL=  2.597403  R,EQ.RATIO= 0.177603  PHI,EQ.RATIO= 0.177603

 THERMODYNAMIC PROPERTIES

 P, BAR            40.000   42.500   45.000   47.500   50.000   55.000   60.000   65.000
 T, K             2590.22  2590.86  2591.44  2591.99  2592.49  2593.41  2594.22  2594.95
 RHO, KG/CU M    5.5347 0 5.8795 0 6.2242 0 6.5689 0 6.9136 0 7.6029 0 8.2920 0 8.9811 0
 H, KJ/KG         1899.47  1899.47  1899.47  1899.47  1899.47  1899.47  1899.47  1899.47
 U, KJ/KG         1176.75  1176.61  1176.49  1176.37  1176.26  1176.06  1175.88  1175.72
 G, KJ/KG        -19705.8 -19667.2 -19630.8 -19596.2 -19563.3 -19501.9 -19445.7 -19393.7
 S, KJ/(KG)(K)     8.3411   8.3242   8.3082   8.2931   8.2788   8.2522   8.2280   8.2056

 M, (1/n)          29.799   29.801   29.802   29.804   29.805   29.807   29.809   29.811
 MW, MOL WT        29.629   29.631   29.632   29.634   29.635   29.637   29.639   29.641
 (dLV/dLP)t      -1.00098 -1.00096 -1.00094 -1.00093 -1.00091 -1.00088 -1.00086 -1.00084
 (dLV/dLT)p        1.0239   1.0233   1.0228   1.0224   1.0219   1.0212   1.0205   1.0199
 Cp, KJ/(KG)(K)    1.6343   1.6307   1.6273   1.6242   1.6213   1.6160   1.6114   1.6073
 GAMMAs            1.2165   1.2169   1.2172   1.2174   1.2177   1.2182   1.2186   1.2190
 SON VEL,M/SEC      937.7    937.9    938.1    938.3    938.4    938.8    939.0    939.3

 MASS FRACTIONS

 AL(OH)3          0.00001  0.00001  0.00001  0.00001  0.00001  0.00001  0.00001  0.00001
 *CO              0.00055  0.00054  0.00053  0.00051  0.00050  0.00048  0.00046  0.00045
 *CO2             0.04781  0.04783  0.04785  0.04787  0.04789  0.04792  0.04795  0.04798
 HNO2             0.00000  0.00001  0.00001  0.00001  0.00001  0.00001  0.00001  0.00001
 HO2              0.00003  0.00003  0.00003  0.00004  0.00004  0.00004  0.00004  0.00004
 *H2              0.00001  0.00001  0.00001  0.00001  0.00001  0.00001  0.00001  0.00000
 H2O              0.01899  0.01901  0.01903  0.01905  0.01906  0.01909  0.01912  0.01915
 *NO              0.02696  0.02699  0.02702  0.02704  0.02707  0.02711  0.02714  0.02717
 NO2              0.00024  0.00024  0.00025  0.00026  0.00026  0.00028  0.00029  0.00030
 *N2              0.60728  0.60727  0.60725  0.60724  0.60723  0.60720  0.60718  0.60716
 N2O              0.00001  0.00001  0.00001  0.00001  0.00001  0.00001  0.00002  0.00002
 *O               0.00096  0.00093  0.00091  0.00088  0.00086  0.00083  0.00079  0.00077
 *OH              0.00279  0.00275  0.00272  0.00269  0.00266  0.00261  0.00256  0.00252
 *O2              0.27473  0.27474  0.27475  0.27476  0.27477  0.27478  0.27480  0.27481
 AL2O3(L)         0.01963  0.01963  0.01963  0.01963  0.01963  0.01963  0.01963  0.01963

  * THERMODYNAMIC PROPERTIES FITTED TO 20000.K

 NOTE. WEIGHT FRACTION OF FUEL IN TOTAL FUELS AND OF OXIDANT IN TOTAL OXIDANTS









         THERMODYNAMIC EQUILIBRIUM COMBUSTION PROPERTIES AT ASSIGNED

                                   PRESSURES

 CASE = MuleSimData1   

             REACTANT                    WT FRACTION      ENERGY      TEMP
                                          (SEE NOTE)     KJ/KG-MOL      K  
 OXIDANT     N2O                          1.0000000     81600.000    298.150
 FUEL        C32H66(a)                    0.6000000   -967800.000    298.150
 FUEL        AL                           0.4000000    330000.000    298.150

 O/F=   37.50000  %FUEL=  2.597403  R,EQ.RATIO= 0.177603  PHI,EQ.RATIO= 0.177603

 THERMODYNAMIC PROPERTIES

 P, BAR            70.000
 T, K             2595.60
 RHO, KG/CU M    9.6700 0
 H, KJ/KG         1899.47
 U, KJ/KG         1175.58
 G, KJ/KG        -19345.5
 S, KJ/(KG)(K)     8.1850

 M, (1/n)          29.813
 MW, MOL WT        29.643
 (dLV/dLP)t      -1.00082
 (dLV/dLT)p        1.0193
 Cp, KJ/(KG)(K)    1.6035
 GAMMAs            1.2194
 SON VEL,M/SEC      939.5

 MASS FRACTIONS

 AL(OH)3          0.00001
 *CO              0.00043
 *CO2             0.04800
 HNO2             0.00001
 HO2              0.00004
 H2O              0.01917
 *NO              0.02720
 NO2              0.00031
 *N2              0.60714
 N2O              0.00002
 *O               0.00074
 *OH              0.00248
 *O2              0.27482
 AL2O3(L)         0.01962

  * THERMODYNAMIC PROPERTIES FITTED TO 20000.K

 NOTE. WEIGHT FRACTION OF FUEL IN TOTAL FUELS AND OF OXIDANT IN TOTAL OXIDANTS









         THERMODYNAMIC EQUILIBRIUM COMBUSTION PROPERTIES AT ASSIGNED

                                   PRESSURES

 CASE = MuleSimData1   

             REACTANT                    WT FRACTION      ENERGY      TEMP
                                          (SEE NOTE)     KJ/KG-MOL      K  
 OXIDANT     N2O                          1.0000000     81600.000    298.150
 FUEL        C32H66(a)                    0.6000000   -967800.000    298.150
 FUEL        AL                           0.4000000    330000.000    298.150

 O/F=   50.00000  %FUEL=  1.960784  R,EQ.RATIO= 0.133202  PHI,EQ.RATIO= 0.133202

 THERMODYNAMIC PROPERTIES

 P, BAR            1.0000   2.5000   5.0000   7.5000   10.000   12.500   15.000   17.500
 T, K             2398.98  2413.84  2422.62  2426.91  2429.62  2431.55  2433.02  2434.19
 RHO, KG/CU M    1.4844-1 3.6926-1 7.3635-1 1.1029 0 1.4693 0 1.8354 0 2.2014 0 2.5673 0
 H, KJ/KG         1888.33  1888.33  1888.33  1888.33  1888.33  1888.33  1888.33  1888.33
 U, KJ/KG         1214.66  1211.29  1209.30  1208.33  1207.71  1207.28  1206.95  1206.68
 G, KJ/KG        -20363.1 -19880.2 -19488.5 -19250.7 -19078.4 -18943.1 -18831.5 -18736.4
 S, KJ/(KG)(K)     9.2754   9.0182   8.8239   8.7102   8.6296   8.5671   8.5161   8.4729

 M, (1/n)          29.609   29.644   29.664   29.674   29.681   29.685   29.689   29.692
 MW, MOL WT        29.482   29.516   29.537   29.547   29.553   29.558   29.561   29.564
 (dLV/dLP)t      -1.00184 -1.00132 -1.00102 -1.00088 -1.00079 -1.00073 -1.00069 -1.00065
 (dLV/dLT)p        1.0493   1.0353   1.0272   1.0234   1.0210   1.0193   1.0180   1.0169
 Cp, KJ/(KG)(K)    1.7974   1.6942   1.6352   1.6070   1.5894   1.5770   1.5677   1.5602
 GAMMAs            1.2051   1.2138   1.2193   1.2221   1.2239   1.2252   1.2261   1.2269
 SON VEL,M/SEC      901.0    906.5    909.9    911.6    912.7    913.4    914.0    914.5

 MASS FRACTIONS

 *CO              0.00091  0.00063  0.00047  0.00040  0.00035  0.00032  0.00029  0.00027
 *CO2             0.03532  0.03576  0.03601  0.03613  0.03620  0.03625  0.03629  0.03632
 *H               0.00001  0.00000  0.00000  0.00000  0.00000  0.00000  0.00000  0.00000
 HO2              0.00001  0.00001  0.00001  0.00001  0.00001  0.00002  0.00002  0.00002
 *H2              0.00001  0.00001  0.00001  0.00000  0.00000  0.00000  0.00000  0.00000
 H2O              0.01359  0.01391  0.01413  0.01425  0.01433  0.01438  0.01443  0.01447
 *NO              0.02004  0.02063  0.02098  0.02115  0.02126  0.02134  0.02140  0.02145
 NO2              0.00004  0.00006  0.00008  0.00010  0.00011  0.00013  0.00014  0.00015
 *N2              0.61463  0.61435  0.61418  0.61410  0.61404  0.61400  0.61397  0.61394
 N2O              0.00000  0.00000  0.00000  0.00000  0.00000  0.00001  0.00001  0.00001
 *O               0.00243  0.00167  0.00123  0.00103  0.00091  0.00082  0.00075  0.00070
 *OH              0.00334  0.00283  0.00247  0.00227  0.00214  0.00204  0.00196  0.00190
 *O2              0.29485  0.29532  0.29560  0.29574  0.29582  0.29588  0.29592  0.29596
 AL2O3(L)         0.01482  0.01482  0.01482  0.01482  0.01482  0.01482  0.01482  0.01482

  * THERMODYNAMIC PROPERTIES FITTED TO 20000.K

 NOTE. WEIGHT FRACTION OF FUEL IN TOTAL FUELS AND OF OXIDANT IN TOTAL OXIDANTS









         THERMODYNAMIC EQUILIBRIUM COMBUSTION PROPERTIES AT ASSIGNED

                                   PRESSURES

 CASE = MuleSimData1   

             REACTANT                    WT FRACTION      ENERGY      TEMP
                                          (SEE NOTE)     KJ/KG-MOL      K  
 OXIDANT     N2O                          1.0000000     81600.000    298.150
 FUEL        C32H66(a)                    0.6000000   -967800.000    298.150
 FUEL        AL                           0.4000000    330000.000    298.150

 O/F=   50.00000  %FUEL=  1.960784  R,EQ.RATIO= 0.133202  PHI,EQ.RATIO= 0.133202

 THERMODYNAMIC PROPERTIES

 P, BAR            20.000   22.500   25.000   27.500   30.000   32.500   35.000   37.500
 T, K             2435.16  2435.97  2436.67  2437.29  2437.83  2438.31  2438.75  2439.14
 RHO, KG/CU M    2.9332 0 3.2989 0 3.6646 0 4.0303 0 4.3959 0 4.7614 0 5.1270 0 5.4925 0
 H, KJ/KG         1888.33  1888.33  1888.33  1888.33  1888.33  1888.33  1888.33  1888.33
 U, KJ/KG         1206.47  1206.28  1206.13  1205.99  1205.87  1205.76  1205.66  1205.57
 G, KJ/KG        -18653.5 -18580.0 -18514.1 -18454.2 -18399.3 -18348.7 -18301.7 -18257.9
 S, KJ/(KG)(K)     8.4355   8.4025   8.3730   8.3464   8.3220   8.2996   8.2788   8.2595

 M, (1/n)          29.694   29.696   29.698   29.699   29.700   29.702   29.703   29.704
 MW, MOL WT        29.566   29.568   29.570   29.572   29.573   29.574   29.575   29.576
 (dLV/dLP)t      -1.00062 -1.00060 -1.00058 -1.00056 -1.00054 -1.00053 -1.00052 -1.00051
 (dLV/dLT)p        1.0161   1.0154   1.0148   1.0143   1.0138   1.0134   1.0130   1.0127
 Cp, KJ/(KG)(K)    1.5541   1.5490   1.5446   1.5408   1.5374   1.5344   1.5317   1.5293
 GAMMAs            1.2276   1.2282   1.2286   1.2290   1.2294   1.2298   1.2301   1.2303
 SON VEL,M/SEC      914.9    915.2    915.5    915.8    916.0    916.2    916.4    916.5

 MASS FRACTIONS

 *CO              0.00026  0.00024  0.00023  0.00022  0.00021  0.00020  0.00020  0.00019
 *CO2             0.03635  0.03637  0.03639  0.03640  0.03641  0.03643  0.03644  0.03645
 HO2              0.00002  0.00002  0.00002  0.00002  0.00002  0.00002  0.00002  0.00002
 H2O              0.01450  0.01452  0.01455  0.01457  0.01459  0.01460  0.01462  0.01463
 *NO              0.02148  0.02152  0.02155  0.02157  0.02159  0.02161  0.02163  0.02165
 NO2              0.00016  0.00017  0.00018  0.00019  0.00020  0.00021  0.00021  0.00022
 *N2              0.61392  0.61390  0.61388  0.61387  0.61386  0.61384  0.61383  0.61382
 N2O              0.00001  0.00001  0.00001  0.00001  0.00001  0.00001  0.00001  0.00001
 *O               0.00066  0.00062  0.00059  0.00057  0.00055  0.00053  0.00051  0.00049
 *OH              0.00184  0.00179  0.00175  0.00172  0.00168  0.00165  0.00163  0.00160
 *O2              0.29598  0.29601  0.29603  0.29604  0.29606  0.29607  0.29608  0.29609
 AL2O3(L)         0.01482  0.01482  0.01482  0.01482  0.01482  0.01482  0.01482  0.01482

  * THERMODYNAMIC PROPERTIES FITTED TO 20000.K

 NOTE. WEIGHT FRACTION OF FUEL IN TOTAL FUELS AND OF OXIDANT IN TOTAL OXIDANTS









         THERMODYNAMIC EQUILIBRIUM COMBUSTION PROPERTIES AT ASSIGNED

                                   PRESSURES

 CASE = MuleSimData1   

             REACTANT                    WT FRACTION      ENERGY      TEMP
                                          (SEE NOTE)     KJ/KG-MOL      K  
 OXIDANT     N2O                          1.0000000     81600.000    298.150
 FUEL        C32H66(a)                    0.6000000   -967800.000    298.150
 FUEL        AL                           0.4000000    330000.000    298.150

 O/F=   50.00000  %FUEL=  1.960784  R,EQ.RATIO= 0.133202  PHI,EQ.RATIO= 0.133202

 THERMODYNAMIC PROPERTIES

 P, BAR            40.000   42.500   45.000   47.500   50.000   55.000   60.000   65.000
 T, K             2439.51  2439.84  2440.14  2440.43  2440.69  2441.17  2441.59  2441.97
 RHO, KG/CU M    5.8580 0 6.2234 0 6.5888 0 6.9542 0 7.3196 0 8.0503 0 8.7810 0 9.5116 0
 H, KJ/KG         1888.33  1888.33  1888.33  1888.33  1888.33  1888.33  1888.33  1888.33
 U, KJ/KG         1205.49  1205.42  1205.35  1205.29  1205.23  1205.13  1205.03  1204.95
 G, KJ/KG        -18216.8 -18178.1 -18141.6 -18107.0 -18074.1 -18012.9 -17956.9 -17905.3
 S, KJ/(KG)(K)     8.2415   8.2245   8.2085   8.1934   8.1790   8.1523   8.1280   8.1056

 M, (1/n)          29.705   29.705   29.706   29.707   29.708   29.709   29.710   29.711
 MW, MOL WT        29.577   29.578   29.579   29.579   29.580   29.581   29.582   29.583
 (dLV/dLP)t      -1.00050 -1.00049 -1.00048 -1.00047 -1.00046 -1.00045 -1.00044 -1.00043
 (dLV/dLT)p        1.0124   1.0121   1.0118   1.0116   1.0114   1.0110   1.0106   1.0103
 Cp, KJ/(KG)(K)    1.5270   1.5250   1.5231   1.5214   1.5197   1.5168   1.5142   1.5119
 GAMMAs            1.2306   1.2308   1.2310   1.2312   1.2314   1.2317   1.2320   1.2323
 SON VEL,M/SEC      916.7    916.8    916.9    917.0    917.1    917.3    917.5    917.7

 MASS FRACTIONS

 *CO              0.00019  0.00018  0.00018  0.00017  0.00017  0.00016  0.00015  0.00015
 *CO2             0.03646  0.03646  0.03647  0.03648  0.03649  0.03650  0.03651  0.03652
 HNO2             0.00000  0.00000  0.00000  0.00000  0.00000  0.00001  0.00001  0.00001
 HO2              0.00002  0.00002  0.00002  0.00002  0.00002  0.00002  0.00002  0.00002
 H2O              0.01464  0.01466  0.01467  0.01468  0.01469  0.01471  0.01472  0.01474
 *NO              0.02166  0.02167  0.02169  0.02170  0.02171  0.02173  0.02174  0.02176
 NO2              0.00023  0.00024  0.00024  0.00025  0.00026  0.00027  0.00028  0.00029
 *N2              0.61381  0.61381  0.61380  0.61379  0.61378  0.61377  0.61376  0.61375
 N2O              0.00001  0.00001  0.00001  0.00001  0.00001  0.00001  0.00001  0.00001
 *O               0.00048  0.00046  0.00045  0.00044  0.00043  0.00041  0.00039  0.00038
 *OH              0.00158  0.00156  0.00154  0.00152  0.00150  0.00147  0.00144  0.00141
 *O2              0.29610  0.29610  0.29611  0.29611  0.29612  0.29613  0.29614  0.29614
 AL2O3(L)         0.01482  0.01482  0.01482  0.01482  0.01482  0.01482  0.01482  0.01482

  * THERMODYNAMIC PROPERTIES FITTED TO 20000.K

 NOTE. WEIGHT FRACTION OF FUEL IN TOTAL FUELS AND OF OXIDANT IN TOTAL OXIDANTS









         THERMODYNAMIC EQUILIBRIUM COMBUSTION PROPERTIES AT ASSIGNED

                                   PRESSURES

 CASE = MuleSimData1   

             REACTANT                    WT FRACTION      ENERGY      TEMP
                                          (SEE NOTE)     KJ/KG-MOL      K  
 OXIDANT     N2O                          1.0000000     81600.000    298.150
 FUEL        C32H66(a)                    0.6000000   -967800.000    298.150
 FUEL        AL                           0.4000000    330000.000    298.150

 O/F=   50.00000  %FUEL=  1.960784  R,EQ.RATIO= 0.133202  PHI,EQ.RATIO= 0.133202

 THERMODYNAMIC PROPERTIES

 P, BAR            70.000
 T, K             2442.31
 RHO, KG/CU M    1.0242 1
 H, KJ/KG         1888.33
 U, KJ/KG         1204.88
 G, KJ/KG        -17857.4
 S, KJ/(KG)(K)     8.0849

 M, (1/n)          29.712
 MW, MOL WT        29.584
 (dLV/dLP)t      -1.00042
 (dLV/dLT)p        1.0100
 Cp, KJ/(KG)(K)    1.5099
 GAMMAs            1.2325
 SON VEL,M/SEC      917.8

 MASS FRACTIONS

 *CO              0.00014
 *CO2             0.03652
 HNO2             0.00001
 HO2              0.00002
 H2O              0.01475
 *NO              0.02177
 NO2              0.00030
 *N2              0.61374
 N2O              0.00001
 *O               0.00037
 *OH              0.00139
 *O2              0.29615
 AL2O3(L)         0.01482

  * THERMODYNAMIC PROPERTIES FITTED TO 20000.K

 NOTE. WEIGHT FRACTION OF FUEL IN TOTAL FUELS AND OF OXIDANT IN TOTAL OXIDANTS



